*SPEF "ieee 1481-1999"
*DESIGN "skag_weight_w1_shiftadd"
*DATE "19:35:59 Thursday May 14, 2026"
*VENDOR "The OpenROAD Project"
*PROGRAM "OpenROAD"
*VERSION "v2.0-19993-ga613c7e53"
*DESIGN_FLOW "NAME_SCOPE LOCAL" "PIN_CAP NONE"
*DIVIDER /
*DELIMITER :
*BUS_DELIMITER []
*T_UNIT 1 NS
*C_UNIT 1 PF
*R_UNIT 1 OHM
*L_UNIT 1 HENRY

*NAME_MAP
*1 _0000_
*2 _0001_
*3 _0002_
*4 _0003_
*5 _0004_
*6 _0005_
*7 _0006_
*8 _0007_
*9 _0008_
*10 _0009_
*11 _0010_
*12 _0011_
*13 _0012_
*14 _0013_
*15 _0014_
*16 _0015_
*17 _0016_
*18 _0017_
*19 _0018_
*20 _0019_
*21 _0020_
*22 _0021_
*23 _0022_
*24 _0023_
*25 _0024_
*26 _0025_
*27 _0026_
*28 _0027_
*29 _0028_
*30 _0029_
*31 _0030_
*32 _0031_
*33 _0032_
*34 _0033_
*35 _0034_
*36 _0035_
*37 _0036_
*38 _0037_
*39 _0038_
*40 _0039_
*41 _0040_
*42 _0041_
*43 _0042_
*44 _0043_
*45 _0044_
*46 _0045_
*47 _0046_
*48 _0047_
*49 _0048_
*50 _0049_
*51 _0050_
*52 _0051_
*53 _0052_
*54 _0053_
*55 _0054_
*56 _0055_
*57 _0056_
*58 _0057_
*59 _0058_
*60 _0059_
*61 _0060_
*62 _0061_
*63 _0062_
*64 _0063_
*65 _0064_
*66 _0065_
*67 _0066_
*68 _0067_
*69 _0068_
*70 _0069_
*71 _0070_
*72 _0071_
*73 _0072_
*74 _0073_
*75 _0074_
*76 _0075_
*77 _0076_
*78 _0077_
*79 _0078_
*80 _0079_
*81 _0080_
*82 _0081_
*83 _0082_
*84 _0083_
*85 _0084_
*86 _0085_
*87 _0086_
*88 _0087_
*89 _0088_
*90 _0089_
*91 _0090_
*92 _0091_
*93 _0092_
*94 _0093_
*95 _0094_
*96 _0095_
*97 _0096_
*98 _0097_
*99 _0098_
*100 _0099_
*101 _0100_
*102 _0101_
*103 _0102_
*104 _0103_
*105 _0104_
*106 _0105_
*107 _0106_
*108 _0107_
*109 _0108_
*110 _0109_
*111 _0110_
*112 _0111_
*113 _0112_
*114 _0113_
*115 _0114_
*116 _0115_
*117 _0116_
*118 _0117_
*119 _0118_
*120 _0119_
*121 _0120_
*122 _0121_
*123 _0122_
*124 _0123_
*125 _0124_
*126 _0125_
*127 _0126_
*128 _0127_
*129 _0128_
*130 _0129_
*131 _0130_
*132 _0131_
*133 _0132_
*134 _0133_
*135 _0134_
*136 _0135_
*137 _0136_
*138 _0137_
*139 _0138_
*140 _0139_
*141 _0140_
*142 _0141_
*143 _0142_
*144 _0143_
*145 _0144_
*146 _0145_
*147 _0146_
*148 _0147_
*149 _0148_
*150 _0149_
*151 _0150_
*152 _0151_
*153 _0152_
*154 _0153_
*155 _0154_
*156 _0155_
*157 _0156_
*158 _0157_
*159 _0158_
*160 _0159_
*161 _0160_
*162 _0161_
*163 _0162_
*164 _0163_
*165 _0164_
*166 _0165_
*167 _0166_
*168 _0167_
*169 _0168_
*170 _0169_
*171 _0170_
*172 _0171_
*173 _0172_
*174 _0173_
*175 _0174_
*176 _0175_
*177 _0176_
*178 _0177_
*179 _0178_
*180 _0179_
*181 _0180_
*182 _0181_
*183 _0182_
*184 _0183_
*185 _0184_
*186 _0185_
*187 _0186_
*188 _0187_
*189 _0188_
*190 _0189_
*191 _0190_
*192 _0191_
*193 _0192_
*194 _0193_
*195 _0194_
*196 _0195_
*197 _0196_
*198 _0197_
*199 _0198_
*200 _0199_
*201 _0200_
*202 _0201_
*203 _0202_
*204 _0203_
*205 _0204_
*206 _0205_
*207 _0206_
*208 _0207_
*209 _0208_
*210 _0209_
*211 _0210_
*212 _0211_
*213 _0212_
*214 _0213_
*215 _0214_
*216 _0215_
*217 _0216_
*218 _0217_
*219 _0218_
*220 _0219_
*221 _0220_
*222 _0221_
*223 _0222_
*224 _0223_
*225 _0224_
*226 _0225_
*227 _0226_
*228 _0227_
*229 _0228_
*230 _0229_
*231 _0230_
*232 _0231_
*233 _0232_
*234 _0233_
*235 _0234_
*236 _0235_
*237 _0236_
*238 _0237_
*239 _0238_
*240 _0239_
*241 _0240_
*242 _0241_
*243 _0242_
*244 _0243_
*245 _0244_
*246 _0245_
*247 _0246_
*248 _0247_
*249 _0248_
*250 _0249_
*251 _0250_
*252 _0251_
*253 _0252_
*254 _0253_
*255 _0254_
*256 _0255_
*257 _0256_
*258 _0257_
*259 _0258_
*260 _0259_
*261 _0260_
*262 _0261_
*263 _0262_
*264 _0263_
*265 _0264_
*266 _0265_
*267 _0266_
*268 _0267_
*269 _0268_
*270 _0269_
*271 _0270_
*272 _0271_
*273 _0272_
*274 _0273_
*275 _0274_
*276 _0275_
*277 _0276_
*278 _0277_
*279 _0278_
*280 _0279_
*281 _0280_
*282 _0281_
*283 _0282_
*284 _0283_
*285 _0284_
*286 _0285_
*287 _0286_
*288 _0287_
*289 _0288_
*290 _0289_
*291 _0290_
*292 _0291_
*293 _0292_
*294 _0293_
*295 _0294_
*296 _0295_
*297 _0296_
*298 _0297_
*299 _0298_
*300 _0299_
*301 _0300_
*302 _0301_
*303 _0302_
*304 _0303_
*305 _0304_
*306 _0305_
*307 _0306_
*308 _0307_
*309 _0308_
*310 _0309_
*311 _0310_
*312 _0311_
*313 _0312_
*314 _0313_
*315 _0314_
*316 _0315_
*317 _0316_
*318 _0317_
*319 _0318_
*320 _0319_
*321 _0320_
*322 _0321_
*323 _0322_
*324 _0323_
*325 _0324_
*326 _0325_
*327 _0326_
*328 _0327_
*329 _0328_
*330 _0329_
*331 _0330_
*332 _0331_
*333 _0332_
*334 _0333_
*335 _0334_
*336 _0335_
*337 _0336_
*338 _0337_
*339 _0338_
*340 _0339_
*341 _0340_
*342 _0341_
*343 _0342_
*344 _0343_
*345 _0344_
*346 _0345_
*347 _0346_
*348 _0347_
*349 _0348_
*350 _0349_
*351 _0350_
*352 _0351_
*353 _0352_
*354 _0353_
*355 _0354_
*356 _0355_
*357 _0356_
*358 _0357_
*359 _0358_
*360 _0359_
*361 _0360_
*362 _0361_
*363 _0362_
*364 _0363_
*365 _0364_
*366 _0365_
*367 _0366_
*368 _0367_
*369 _0368_
*370 _0369_
*371 _0370_
*372 _0371_
*373 _0372_
*374 _0373_
*375 _0374_
*376 _0375_
*377 _0376_
*378 _0377_
*379 _0378_
*380 _0379_
*381 _0380_
*382 _0381_
*383 _0382_
*384 _0383_
*385 _0384_
*386 _0385_
*387 _0386_
*388 _0387_
*389 _0388_
*390 _0389_
*391 _0390_
*392 _0391_
*393 _0392_
*394 _0393_
*395 _0394_
*396 _0395_
*397 _0396_
*398 _0397_
*399 _0398_
*400 _0399_
*401 _0400_
*402 _0401_
*403 _0402_
*404 _0403_
*405 _0404_
*406 _0405_
*407 _0406_
*408 _0407_
*409 _0408_
*410 _0409_
*411 _0410_
*412 _0411_
*413 _0412_
*414 _0413_
*415 _0414_
*416 _0415_
*417 _0416_
*418 _0417_
*419 _0418_
*420 _0419_
*421 _0420_
*422 _0421_
*423 _0422_
*424 _0423_
*425 _0424_
*426 _0425_
*427 _0426_
*428 _0427_
*429 _0428_
*430 _0429_
*431 _0430_
*432 _0431_
*433 _0432_
*434 _0433_
*435 _0434_
*436 _0435_
*437 _0436_
*438 _0437_
*439 _0438_
*440 _0439_
*441 _0440_
*442 _0441_
*443 _0442_
*444 _0443_
*445 _0444_
*446 _0445_
*447 _0446_
*448 _0447_
*449 _0448_
*450 _0449_
*451 _0450_
*452 _0451_
*453 _0452_
*454 _0453_
*455 _0454_
*456 _0455_
*457 _0456_
*458 _0457_
*459 _0458_
*460 _0459_
*461 _0460_
*462 _0461_
*463 _0462_
*464 _0463_
*465 _0464_
*466 _0465_
*467 _0466_
*468 _0467_
*469 _0468_
*470 _0469_
*471 _0470_
*472 _0471_
*473 _0472_
*474 _0473_
*475 _0474_
*476 _0475_
*477 _0476_
*478 _0477_
*479 _0478_
*480 _0479_
*481 _0480_
*482 _0481_
*483 _0482_
*484 _0483_
*485 _0484_
*486 _0485_
*487 _0486_
*488 _0487_
*489 _0488_
*490 _0489_
*491 _0490_
*492 _0491_
*493 _0492_
*494 _0493_
*495 _0494_
*496 _0495_
*497 _0496_
*498 _0497_
*499 _0498_
*500 _0499_
*501 _0500_
*502 _0501_
*503 _0502_
*504 _0503_
*505 _0504_
*506 _0505_
*507 _0506_
*508 _0507_
*509 _0508_
*510 _0509_
*511 _0510_
*512 _0511_
*513 _0512_
*514 _0513_
*515 _0514_
*516 _0515_
*517 _0516_
*518 _0517_
*519 _0518_
*520 _0519_
*521 _0520_
*522 _0521_
*523 _0522_
*524 _0523_
*525 _0524_
*526 _0525_
*527 _0526_
*528 _0527_
*529 _0528_
*530 _0529_
*531 _0530_
*532 _0531_
*533 _0532_
*534 _0533_
*535 _0534_
*536 _0535_
*537 _0536_
*538 _0537_
*539 _0538_
*540 _0539_
*541 _0540_
*542 _0541_
*543 _0542_
*544 _0543_
*545 _0544_
*546 _0545_
*547 clknet_0_clk
*548 arrival_rate_q88[0]
*549 arrival_rate_q88[10]
*550 arrival_rate_q88[11]
*551 arrival_rate_q88[12]
*552 arrival_rate_q88[13]
*553 arrival_rate_q88[14]
*554 arrival_rate_q88[15]
*555 arrival_rate_q88[1]
*556 arrival_rate_q88[2]
*557 arrival_rate_q88[3]
*558 arrival_rate_q88[4]
*559 arrival_rate_q88[5]
*560 arrival_rate_q88[6]
*561 arrival_rate_q88[7]
*562 arrival_rate_q88[8]
*563 arrival_rate_q88[9]
*564 avg_fidelity_q016[0]
*565 avg_fidelity_q016[10]
*566 avg_fidelity_q016[11]
*567 avg_fidelity_q016[12]
*568 avg_fidelity_q016[13]
*569 avg_fidelity_q016[14]
*570 avg_fidelity_q016[15]
*571 avg_fidelity_q016[1]
*572 avg_fidelity_q016[2]
*573 avg_fidelity_q016[3]
*574 avg_fidelity_q016[4]
*575 avg_fidelity_q016[5]
*576 avg_fidelity_q016[6]
*577 avg_fidelity_q016[7]
*578 avg_fidelity_q016[8]
*579 avg_fidelity_q016[9]
*580 clk
*581 net66
*582 key_count[0]
*583 key_count[10]
*584 key_count[11]
*585 key_count[12]
*586 key_count[13]
*587 key_count[14]
*588 key_count[15]
*589 key_count[1]
*590 key_count[2]
*591 key_count[3]
*592 key_count[4]
*593 key_count[5]
*594 key_count[6]
*595 key_count[7]
*596 key_count[8]
*597 key_count[9]
*598 qber_q016[0]
*599 qber_q016[10]
*600 qber_q016[11]
*601 qber_q016[12]
*602 qber_q016[13]
*603 qber_q016[14]
*604 qber_q016[15]
*605 qber_q016[1]
*606 qber_q016[2]
*607 qber_q016[3]
*608 qber_q016[4]
*609 qber_q016[5]
*610 qber_q016[6]
*611 qber_q016[7]
*612 qber_q016[8]
*613 qber_q016[9]
*614 rst_n
*615 net67
*616 net68
*617 net69
*618 net70
*619 net71
*620 net72
*621 net73
*622 net74
*623 net75
*624 net76
*625 score_q16[19]
*626 net77
*627 score_q16[20]
*628 score_q16[21]
*629 score_q16[22]
*630 score_q16[23]
*631 score_q16[24]
*632 score_q16[25]
*633 score_q16[26]
*634 score_q16[27]
*635 score_q16[28]
*636 score_q16[29]
*637 net78
*638 score_q16[30]
*639 score_q16[31]
*640 net79
*641 net80
*642 net81
*643 net82
*644 net83
*645 net84
*646 net85
*647 start
*648 sum_s2\[0\]
*649 sum_s2\[10\]
*650 sum_s2\[11\]
*651 sum_s2\[12\]
*652 sum_s2\[13\]
*653 sum_s2\[14\]
*654 sum_s2\[15\]
*655 sum_s2\[16\]
*656 sum_s2\[17\]
*657 sum_s2\[18\]
*658 sum_s2\[1\]
*659 sum_s2\[2\]
*660 sum_s2\[3\]
*661 sum_s2\[4\]
*662 sum_s2\[5\]
*663 sum_s2\[6\]
*664 sum_s2\[7\]
*665 sum_s2\[8\]
*666 sum_s2\[9\]
*667 term_f_s1\[0\]
*668 term_f_s1\[10\]
*669 term_f_s1\[11\]
*670 term_f_s1\[12\]
*671 term_f_s1\[13\]
*672 term_f_s1\[14\]
*673 term_f_s1\[15\]
*674 term_f_s1\[16\]
*675 term_f_s1\[1\]
*676 term_f_s1\[2\]
*677 term_f_s1\[3\]
*678 term_f_s1\[4\]
*679 term_f_s1\[5\]
*680 term_f_s1\[6\]
*681 term_f_s1\[7\]
*682 term_f_s1\[8\]
*683 term_f_s1\[9\]
*684 term_k_s1\[0\]
*685 term_k_s1\[10\]
*686 term_k_s1\[11\]
*687 term_k_s1\[12\]
*688 term_k_s1\[13\]
*689 term_k_s1\[14\]
*690 term_k_s1\[15\]
*691 term_k_s1\[1\]
*692 term_k_s1\[2\]
*693 term_k_s1\[3\]
*694 term_k_s1\[4\]
*695 term_k_s1\[5\]
*696 term_k_s1\[6\]
*697 term_k_s1\[7\]
*698 term_k_s1\[8\]
*699 term_k_s1\[9\]
*700 term_l_s1\[0\]
*701 term_l_s1\[10\]
*702 term_l_s1\[11\]
*703 term_l_s1\[12\]
*704 term_l_s1\[13\]
*705 term_l_s1\[14\]
*706 term_l_s1\[1\]
*707 term_l_s1\[2\]
*708 term_l_s1\[3\]
*709 term_l_s1\[4\]
*710 term_l_s1\[5\]
*711 term_l_s1\[6\]
*712 term_l_s1\[7\]
*713 term_l_s1\[8\]
*714 term_l_s1\[9\]
*715 term_q_s1\[10\]
*716 term_q_s1\[11\]
*717 term_q_s1\[12\]
*718 term_q_s1\[13\]
*719 term_q_s1\[14\]
*720 term_q_s1\[15\]
*721 term_q_s1\[16\]
*722 term_q_s1\[1\]
*723 term_q_s1\[2\]
*724 term_q_s1\[3\]
*725 term_q_s1\[4\]
*726 term_q_s1\[5\]
*727 term_q_s1\[6\]
*728 term_q_s1\[7\]
*729 term_q_s1\[8\]
*730 term_q_s1\[9\]
*731 valid_s1
*732 valid_s2
*735 net1
*736 net2
*737 net3
*738 net4
*739 net5
*740 net6
*741 net7
*742 net8
*743 net9
*744 net10
*745 net11
*746 net12
*747 net13
*748 net14
*749 net15
*750 net16
*751 net17
*752 net18
*753 net19
*754 net20
*755 net21
*756 net22
*757 net23
*758 net24
*759 net25
*760 net26
*761 net27
*762 net28
*763 net29
*764 net30
*765 net31
*766 net32
*767 net33
*768 net34
*769 net35
*770 net36
*771 net37
*772 net38
*773 net39
*774 net40
*775 net41
*776 net42
*777 net43
*778 net44
*779 net45
*780 net46
*781 net47
*782 net48
*783 net49
*784 net50
*785 net51
*786 net52
*787 net53
*788 net54
*789 net55
*790 net56
*791 net57
*792 net58
*793 net59
*794 net60
*795 net61
*796 net62
*797 net63
*798 net64
*799 net65
*800 done
*801 score_q16[0]
*802 score_q16[10]
*803 score_q16[11]
*804 score_q16[12]
*805 score_q16[13]
*806 score_q16[14]
*807 score_q16[15]
*808 score_q16[16]
*809 score_q16[17]
*810 score_q16[18]
*811 score_q16[1]
*812 score_q16[2]
*813 score_q16[3]
*814 score_q16[4]
*815 score_q16[5]
*816 score_q16[6]
*817 score_q16[7]
*818 score_q16[8]
*819 score_q16[9]
*820 net86
*821 net87
*822 net88
*823 net89
*824 net90
*825 net91
*826 net92
*827 net93
*828 net94
*829 net95
*830 net96
*831 net97
*832 net98
*833 net99
*834 net100
*835 net101
*836 net102
*837 net103
*838 net104
*839 net105
*840 net106
*841 net107
*842 net108
*843 net109
*844 net110
*845 net111
*846 net112
*847 clknet_3_0__leaf_clk
*848 clknet_3_1__leaf_clk
*849 clknet_3_2__leaf_clk
*850 clknet_3_3__leaf_clk
*851 clknet_3_4__leaf_clk
*852 clknet_3_5__leaf_clk
*853 clknet_3_6__leaf_clk
*854 clknet_3_7__leaf_clk
*855 _0547_
*856 _0548_
*857 _0549_
*858 _0550_
*859 _0551_
*860 _0552_
*861 _0553_
*862 _0554_
*863 _0555_
*864 _0556_
*865 _0557_
*866 _0558_
*867 _0559_
*868 _0560_
*869 _0561_
*870 _0562_
*871 _0563_
*872 _0564_
*873 _0565_
*874 _0566_
*875 _0567_
*876 _0568_
*877 _0569_
*878 _0570_
*879 _0571_
*880 _0572_
*881 _0573_
*882 _0574_
*883 _0575_
*884 _0576_
*885 _0577_
*886 _0578_
*887 _0579_
*888 _0580_
*889 _0581_
*890 _0582_
*891 _0583_
*892 _0584_
*893 _0585_
*894 _0586_
*895 _0587_
*896 _0588_
*897 _0589_
*898 _0590_
*899 _0591_
*900 _0592_
*901 _0593_
*902 _0594_
*903 _0595_
*904 _0596_
*905 _0597_
*906 _0598_
*907 _0599_
*908 _0600_
*909 _0601_
*910 _0602_
*911 _0603_
*912 _0604_
*913 _0605_
*914 _0606_
*915 _0607_
*916 _0608_
*917 _0609_
*918 _0610_
*919 _0611_
*920 _0612_
*921 _0613_
*922 _0614_
*923 _0615_
*924 _0616_
*925 _0617_
*926 _0618_
*927 _0619_
*928 _0620_
*929 _0621_
*930 _0622_
*931 _0623_
*932 _0624_
*933 _0625_
*934 _0626_
*935 _0627_
*936 _0628_
*937 _0629_
*938 _0630_
*939 _0631_
*940 _0632_
*941 _0633_
*942 _0634_
*943 _0635_
*944 _0636_
*945 _0637_
*946 _0638_
*947 _0639_
*948 _0640_
*949 _0641_
*950 _0642_
*951 _0643_
*952 _0644_
*953 _0645_
*954 _0646_
*955 _0647_
*956 _0648_
*957 _0649_
*958 _0650_
*959 _0651_
*960 _0652_
*961 _0653_
*962 _0654_
*963 _0655_
*964 _0656_
*965 _0657_
*966 _0658_
*967 _0659_
*968 _0660_
*969 _0661_
*970 _0662_
*971 _0663_
*972 _0664_
*973 _0665_
*974 _0666_
*975 _0667_
*976 _0668_
*977 _0669_
*978 _0670_
*979 _0671_
*980 _0672_
*981 _0673_
*982 _0674_
*983 _0675_
*984 _0676_
*985 _0677_
*986 _0678_
*987 _0679_
*988 _0680_
*989 _0681_
*990 _0682_
*991 _0683_
*992 _0684_
*993 _0685_
*994 _0686_
*995 _0687_
*996 _0688_
*997 _0689_
*998 _0690_
*999 _0691_
*1000 _0692_
*1001 _0693_
*1002 _0694_
*1003 _0695_
*1004 _0696_
*1005 _0697_
*1006 _0698_
*1007 _0699_
*1008 _0700_
*1009 _0701_
*1010 _0702_
*1011 _0703_
*1012 _0704_
*1013 _0705_
*1014 _0706_
*1015 _0707_
*1016 _0708_
*1017 _0709_
*1018 _0710_
*1019 _0711_
*1020 _0712_
*1021 _0713_
*1022 _0714_
*1023 _0715_
*1024 _0716_
*1025 _0717_
*1026 _0718_
*1027 _0719_
*1028 _0720_
*1029 _0721_
*1030 _0722_
*1031 _0723_
*1032 _0724_
*1033 _0725_
*1034 _0726_
*1035 _0727_
*1036 _0728_
*1037 _0729_
*1038 _0730_
*1039 _0731_
*1040 _0732_
*1041 _0733_
*1042 _0734_
*1043 _0735_
*1044 _0736_
*1045 _0737_
*1046 _0738_
*1047 _0739_
*1048 _0740_
*1049 _0741_
*1050 _0742_
*1051 _0743_
*1052 _0744_
*1053 _0745_
*1054 _0746_
*1055 _0747_
*1056 _0748_
*1057 _0749_
*1058 _0750_
*1059 _0751_
*1060 _0752_
*1061 _0753_
*1062 _0754_
*1063 _0755_
*1064 _0756_
*1065 _0757_
*1066 _0758_
*1067 _0759_
*1068 _0760_
*1069 _0761_
*1070 _0762_
*1071 _0763_
*1072 _0764_
*1073 _0765_
*1074 _0766_
*1075 _0767_
*1076 _0768_
*1077 _0769_
*1078 _0770_
*1079 _0771_
*1080 _0772_
*1081 _0773_
*1082 _0774_
*1083 _0775_
*1084 _0776_
*1085 _0777_
*1086 _0778_
*1087 _0779_
*1088 _0780_
*1089 _0781_
*1090 _0782_
*1091 _0783_
*1092 _0784_
*1093 _0785_
*1094 _0786_
*1095 _0787_
*1096 _0788_
*1097 _0789_
*1098 _0790_
*1099 _0791_
*1100 _0792_
*1101 _0793_
*1102 _0794_
*1103 _0795_
*1104 _0796_
*1105 _0797_
*1106 _0798_
*1107 _0799_
*1108 _0800_
*1109 _0801_
*1110 _0802_
*1111 _0803_
*1112 _0804_
*1113 _0805_
*1114 _0806_
*1115 _0807_
*1116 _0808_
*1117 _0809_
*1118 _0810_
*1119 _0811_
*1120 _0812_
*1121 _0813_
*1122 _0814_
*1123 _0815_
*1124 _0816_
*1125 _0817_
*1126 _0818_
*1127 _0819_
*1128 _0820_
*1129 _0821_
*1130 _0822_
*1131 _0823_
*1132 _0824_
*1133 _0825_
*1134 _0826_
*1135 _0827_
*1136 _0828_
*1137 _0829_
*1138 _0830_
*1139 _0831_
*1140 _0832_
*1141 _0833_
*1142 _0834_
*1143 _0835_
*1144 _0836_
*1145 _0837_
*1146 _0838_
*1147 _0839_
*1148 _0840_
*1149 _0841_
*1150 _0842_
*1151 _0843_
*1152 _0844_
*1153 _0845_
*1154 _0846_
*1155 _0847_
*1156 _0848_
*1157 _0849_
*1158 _0850_
*1159 _0851_
*1160 _0852_
*1161 _0853_
*1162 _0854_
*1163 _0855_
*1164 _0856_
*1165 _0857_
*1166 _0858_
*1167 _0859_
*1168 _0860_
*1169 _0861_
*1170 _0862_
*1171 _0863_
*1172 _0864_
*1173 _0865_
*1174 _0866_
*1175 _0867_
*1176 _0868_
*1177 _0869_
*1178 _0870_
*1179 _0871_
*1180 _0872_
*1181 _0873_
*1182 _0874_
*1183 _0875_
*1184 _0876_
*1185 _0877_
*1186 _0878_
*1187 _0879_
*1188 _0880_
*1189 _0881_
*1190 _0882_
*1191 _0883_
*1192 _0884_
*1193 _0885_
*1194 _0886_
*1195 _0887_
*1196 _0888_
*1197 _0889_
*1198 _0890_
*1199 _0891_
*1200 _0892_
*1201 _0893_
*1202 _0894_
*1203 _0895_
*1204 _0896_
*1205 _0897_
*1206 _0898_
*1207 _0899_
*1208 _0900_
*1209 _0901_
*1210 _0902_
*1211 _0903_
*1212 _0904_
*1213 _0905_
*1214 _0906_
*1215 _0907_
*1216 _0908_
*1217 _0909_
*1218 _0910_
*1219 _0911_
*1220 _0912_
*1221 _0913_
*1222 _0914_
*1223 _0915_
*1224 _0916_
*1225 _0917_
*1226 _0918_
*1227 _0919_
*1228 _0920_
*1229 _0921_
*1230 _0922_
*1231 _0923_
*1232 _0924_
*1233 _0925_
*1234 _0926_
*1235 _0927_
*1236 _0928_
*1237 _0929_
*1238 _0930_
*1239 _0931_
*1240 _0932_
*1241 _0933_
*1242 _0934_
*1243 _0935_
*1244 _0936_
*1245 _0937_
*1246 _0938_
*1247 _0939_
*1248 _0940_
*1249 _0941_
*1250 _0942_
*1251 _0943_
*1252 _0944_
*1253 _0945_
*1254 _0946_
*1255 _0947_
*1256 _0948_
*1257 _0949_
*1258 _0950_
*1259 _0951_
*1260 _0952_
*1261 _0953_
*1262 _0954_
*1263 _0955_
*1264 _0956_
*1265 _0957_
*1266 _0958_
*1267 _0959_
*1268 _0960_
*1269 _0961_
*1270 _0962_
*1271 _0963_
*1272 _0964_
*1273 _0965_
*1274 _0966_
*1275 _0967_
*1276 _0968_
*1277 _0969_
*1278 _0970_
*1279 _0971_
*1280 _0972_
*1281 _0973_
*1282 _0974_
*1283 _0975_
*1284 _0976_
*1285 _0977_
*1286 _0978_
*1287 _0979_
*1288 _0980_
*1289 _0981_
*1290 _0982_
*1291 _0983_
*1292 _0984_
*1293 _0985_
*1294 _0986_
*1295 _0987_
*1296 _0988_
*1297 _0989_
*1298 _0990_
*1299 _0991_
*1300 _0992_
*1301 _0993_
*1302 _0994_
*1303 _0995_
*1304 _0996_
*1305 _0997_
*1306 _0998_
*1307 _0999_
*1308 _1000_
*1309 _1001_
*1310 _1002_
*1311 _1003_
*1312 _1004_
*1313 _1005_
*1314 _1006_
*1315 _1007_
*1316 _1008_
*1317 _1009_
*1318 _1010_
*1319 _1011_
*1320 _1012_
*1321 _1013_
*1322 clkbuf_0_clk
*1323 _1015_
*1324 _1016_
*1325 _1017_
*1326 _1018_
*1327 _1019_
*1328 _1020_
*1329 _1021_
*1330 _1022_
*1331 _1023_
*1332 _1024_
*1333 _1025_
*1334 _1026_
*1335 _1027_
*1336 done\$_SDFF_PN0_
*1337 score_q16\[0\]\$_SDFFE_PN0P_
*1338 score_q16\[10\]\$_SDFFE_PN0P_
*1339 score_q16\[11\]\$_SDFFE_PN0P_
*1340 score_q16\[12\]\$_SDFFE_PN0P_
*1341 score_q16\[13\]\$_SDFFE_PN0P_
*1342 score_q16\[14\]\$_SDFFE_PN0P_
*1343 score_q16\[15\]\$_SDFFE_PN0P_
*1344 score_q16\[16\]\$_SDFFE_PN0P_
*1345 score_q16\[17\]\$_SDFFE_PN0P_
*1346 score_q16\[18\]\$_SDFFE_PN0P_
*1347 score_q16\[1\]\$_SDFFE_PN0P_
*1348 score_q16\[2\]\$_SDFFE_PN0P_
*1349 score_q16\[3\]\$_SDFFE_PN0P_
*1350 score_q16\[4\]\$_SDFFE_PN0P_
*1351 score_q16\[5\]\$_SDFFE_PN0P_
*1352 score_q16\[6\]\$_SDFFE_PN0P_
*1353 score_q16\[7\]\$_SDFFE_PN0P_
*1354 score_q16\[8\]\$_SDFFE_PN0P_
*1355 score_q16\[9\]\$_SDFFE_PN0P_
*1356 sum_s2\[0\]\$_SDFF_PN0_
*1357 sum_s2\[10\]\$_SDFF_PN0_
*1358 sum_s2\[11\]\$_SDFF_PN0_
*1359 sum_s2\[12\]\$_SDFF_PN0_
*1360 sum_s2\[13\]\$_SDFF_PN0_
*1361 sum_s2\[14\]\$_SDFF_PN0_
*1362 sum_s2\[15\]\$_SDFF_PN0_
*1363 sum_s2\[16\]\$_SDFF_PN0_
*1364 sum_s2\[17\]\$_SDFF_PN0_
*1365 sum_s2\[18\]\$_SDFF_PN0_
*1366 sum_s2\[1\]\$_SDFF_PN0_
*1367 sum_s2\[2\]\$_SDFF_PN0_
*1368 sum_s2\[3\]\$_SDFF_PN0_
*1369 sum_s2\[4\]\$_SDFF_PN0_
*1370 sum_s2\[5\]\$_SDFF_PN0_
*1371 sum_s2\[6\]\$_SDFF_PN0_
*1372 sum_s2\[7\]\$_SDFF_PN0_
*1373 sum_s2\[8\]\$_SDFF_PN0_
*1374 sum_s2\[9\]\$_SDFF_PN0_
*1375 term_f_s1\[0\]\$_SDFF_PN0_
*1376 term_f_s1\[10\]\$_SDFF_PN0_
*1377 term_f_s1\[11\]\$_SDFF_PN0_
*1378 term_f_s1\[12\]\$_SDFF_PN0_
*1379 term_f_s1\[13\]\$_SDFF_PN0_
*1380 term_f_s1\[14\]\$_SDFF_PN0_
*1381 term_f_s1\[15\]\$_SDFF_PN0_
*1382 term_f_s1\[16\]\$_SDFF_PN0_
*1383 term_f_s1\[1\]\$_SDFF_PN0_
*1384 term_f_s1\[2\]\$_SDFF_PN0_
*1385 term_f_s1\[3\]\$_SDFF_PN0_
*1386 term_f_s1\[4\]\$_SDFF_PN0_
*1387 term_f_s1\[5\]\$_SDFF_PN0_
*1388 term_f_s1\[6\]\$_SDFF_PN0_
*1389 term_f_s1\[7\]\$_SDFF_PN0_
*1390 term_f_s1\[8\]\$_SDFF_PN0_
*1391 term_f_s1\[9\]\$_SDFF_PN0_
*1392 term_k_s1\[0\]\$_SDFF_PP0_
*1393 term_k_s1\[10\]\$_SDFF_PP0_
*1394 term_k_s1\[11\]\$_SDFF_PP0_
*1395 term_k_s1\[12\]\$_SDFF_PP0_
*1396 term_k_s1\[13\]\$_SDFF_PP0_
*1397 term_k_s1\[14\]\$_SDFF_PP0_
*1398 term_k_s1\[15\]\$_SDFF_PP0_
*1399 term_k_s1\[1\]\$_SDFF_PP0_
*1400 term_k_s1\[2\]\$_SDFF_PP0_
*1401 term_k_s1\[3\]\$_SDFF_PP0_
*1402 term_k_s1\[4\]\$_SDFF_PP0_
*1403 term_k_s1\[5\]\$_SDFF_PP0_
*1404 term_k_s1\[6\]\$_SDFF_PP0_
*1405 term_k_s1\[7\]\$_SDFF_PP0_
*1406 term_k_s1\[8\]\$_SDFF_PP0_
*1407 term_k_s1\[9\]\$_SDFF_PP0_
*1408 term_l_s1\[0\]\$_SDFF_PP0_
*1409 term_l_s1\[10\]\$_SDFF_PP0_
*1410 term_l_s1\[11\]\$_SDFF_PP0_
*1411 term_l_s1\[12\]\$_SDFF_PP0_
*1412 term_l_s1\[13\]\$_SDFF_PP0_
*1413 term_l_s1\[14\]\$_SDFF_PP0_
*1414 term_l_s1\[1\]\$_SDFF_PP0_
*1415 term_l_s1\[2\]\$_SDFF_PP0_
*1416 term_l_s1\[3\]\$_SDFF_PP0_
*1417 term_l_s1\[4\]\$_SDFF_PP0_
*1418 term_l_s1\[5\]\$_SDFF_PP0_
*1419 term_l_s1\[6\]\$_SDFF_PP0_
*1420 term_l_s1\[7\]\$_SDFF_PP0_
*1421 term_l_s1\[8\]\$_SDFF_PP0_
*1422 term_l_s1\[9\]\$_SDFF_PP0_
*1423 term_q_s1\[10\]\$_SDFF_PN0_
*1424 term_q_s1\[11\]\$_SDFF_PN0_
*1425 term_q_s1\[12\]\$_SDFF_PN0_
*1426 term_q_s1\[13\]\$_SDFF_PN0_
*1427 term_q_s1\[14\]\$_SDFF_PN0_
*1428 term_q_s1\[15\]\$_SDFF_PN0_
*1429 term_q_s1\[16\]\$_SDFF_PN0_
*1430 term_q_s1\[1\]\$_SDFF_PN0_
*1431 term_q_s1\[2\]\$_SDFF_PN0_
*1432 term_q_s1\[3\]\$_SDFF_PN0_
*1433 term_q_s1\[4\]\$_SDFF_PN0_
*1434 term_q_s1\[5\]\$_SDFF_PN0_
*1435 term_q_s1\[6\]\$_SDFF_PN0_
*1436 term_q_s1\[7\]\$_SDFF_PN0_
*1437 term_q_s1\[8\]\$_SDFF_PN0_
*1438 term_q_s1\[9\]\$_SDFF_PN0_
*1439 valid_s1\$_SDFF_PN0_
*1440 valid_s2\$_SDFF_PN0_
*1441 TAP_TAPCELL_ROW_0_0
*1442 TAP_TAPCELL_ROW_0_1
*1443 TAP_TAPCELL_ROW_0_2
*1444 TAP_TAPCELL_ROW_0_3
*1445 TAP_TAPCELL_ROW_0_4
*1446 TAP_TAPCELL_ROW_0_5
*1447 TAP_TAPCELL_ROW_0_6
*1448 TAP_TAPCELL_ROW_0_7
*1449 TAP_TAPCELL_ROW_0_8
*1450 TAP_TAPCELL_ROW_0_9
*1451 TAP_TAPCELL_ROW_0_10
*1452 TAP_TAPCELL_ROW_1_11
*1453 TAP_TAPCELL_ROW_1_12
*1454 TAP_TAPCELL_ROW_1_13
*1455 TAP_TAPCELL_ROW_1_14
*1456 TAP_TAPCELL_ROW_1_15
*1457 TAP_TAPCELL_ROW_2_16
*1458 TAP_TAPCELL_ROW_2_17
*1459 TAP_TAPCELL_ROW_2_18
*1460 TAP_TAPCELL_ROW_2_19
*1461 TAP_TAPCELL_ROW_2_20
*1462 TAP_TAPCELL_ROW_2_21
*1463 TAP_TAPCELL_ROW_3_22
*1464 TAP_TAPCELL_ROW_3_23
*1465 TAP_TAPCELL_ROW_3_24
*1466 TAP_TAPCELL_ROW_3_25
*1467 TAP_TAPCELL_ROW_3_26
*1468 TAP_TAPCELL_ROW_4_27
*1469 TAP_TAPCELL_ROW_4_28
*1470 TAP_TAPCELL_ROW_4_29
*1471 TAP_TAPCELL_ROW_4_30
*1472 TAP_TAPCELL_ROW_4_31
*1473 TAP_TAPCELL_ROW_4_32
*1474 TAP_TAPCELL_ROW_5_33
*1475 TAP_TAPCELL_ROW_5_34
*1476 TAP_TAPCELL_ROW_5_35
*1477 TAP_TAPCELL_ROW_5_36
*1478 TAP_TAPCELL_ROW_5_37
*1479 TAP_TAPCELL_ROW_6_38
*1480 TAP_TAPCELL_ROW_6_39
*1481 TAP_TAPCELL_ROW_6_40
*1482 TAP_TAPCELL_ROW_6_41
*1483 TAP_TAPCELL_ROW_6_42
*1484 TAP_TAPCELL_ROW_6_43
*1485 TAP_TAPCELL_ROW_7_44
*1486 TAP_TAPCELL_ROW_7_45
*1487 TAP_TAPCELL_ROW_7_46
*1488 TAP_TAPCELL_ROW_7_47
*1489 TAP_TAPCELL_ROW_7_48
*1490 TAP_TAPCELL_ROW_8_49
*1491 TAP_TAPCELL_ROW_8_50
*1492 TAP_TAPCELL_ROW_8_51
*1493 TAP_TAPCELL_ROW_8_52
*1494 TAP_TAPCELL_ROW_8_53
*1495 TAP_TAPCELL_ROW_8_54
*1496 TAP_TAPCELL_ROW_9_55
*1497 TAP_TAPCELL_ROW_9_56
*1498 TAP_TAPCELL_ROW_9_57
*1499 TAP_TAPCELL_ROW_9_58
*1500 TAP_TAPCELL_ROW_9_59
*1501 TAP_TAPCELL_ROW_10_60
*1502 TAP_TAPCELL_ROW_10_61
*1503 TAP_TAPCELL_ROW_10_62
*1504 TAP_TAPCELL_ROW_10_63
*1505 TAP_TAPCELL_ROW_10_64
*1506 TAP_TAPCELL_ROW_10_65
*1507 TAP_TAPCELL_ROW_11_66
*1508 TAP_TAPCELL_ROW_11_67
*1509 TAP_TAPCELL_ROW_11_68
*1510 TAP_TAPCELL_ROW_11_69
*1511 TAP_TAPCELL_ROW_11_70
*1512 TAP_TAPCELL_ROW_12_71
*1513 TAP_TAPCELL_ROW_12_72
*1514 TAP_TAPCELL_ROW_12_73
*1515 TAP_TAPCELL_ROW_12_74
*1516 TAP_TAPCELL_ROW_12_75
*1517 TAP_TAPCELL_ROW_12_76
*1518 TAP_TAPCELL_ROW_13_77
*1519 TAP_TAPCELL_ROW_13_78
*1520 TAP_TAPCELL_ROW_13_79
*1521 TAP_TAPCELL_ROW_13_80
*1522 TAP_TAPCELL_ROW_13_81
*1523 TAP_TAPCELL_ROW_14_82
*1524 TAP_TAPCELL_ROW_14_83
*1525 TAP_TAPCELL_ROW_14_84
*1526 TAP_TAPCELL_ROW_14_85
*1527 TAP_TAPCELL_ROW_14_86
*1528 TAP_TAPCELL_ROW_14_87
*1529 TAP_TAPCELL_ROW_15_88
*1530 TAP_TAPCELL_ROW_15_89
*1531 TAP_TAPCELL_ROW_15_90
*1532 TAP_TAPCELL_ROW_15_91
*1533 TAP_TAPCELL_ROW_15_92
*1534 TAP_TAPCELL_ROW_16_93
*1535 TAP_TAPCELL_ROW_16_94
*1536 TAP_TAPCELL_ROW_16_95
*1537 TAP_TAPCELL_ROW_16_96
*1538 TAP_TAPCELL_ROW_16_97
*1539 TAP_TAPCELL_ROW_16_98
*1540 TAP_TAPCELL_ROW_17_99
*1541 TAP_TAPCELL_ROW_17_100
*1542 TAP_TAPCELL_ROW_17_101
*1543 TAP_TAPCELL_ROW_17_102
*1544 TAP_TAPCELL_ROW_17_103
*1545 TAP_TAPCELL_ROW_18_104
*1546 TAP_TAPCELL_ROW_18_105
*1547 TAP_TAPCELL_ROW_18_106
*1548 TAP_TAPCELL_ROW_18_107
*1549 TAP_TAPCELL_ROW_18_108
*1550 TAP_TAPCELL_ROW_18_109
*1551 TAP_TAPCELL_ROW_19_110
*1552 TAP_TAPCELL_ROW_19_111
*1553 TAP_TAPCELL_ROW_19_112
*1554 TAP_TAPCELL_ROW_19_113
*1555 TAP_TAPCELL_ROW_19_114
*1556 TAP_TAPCELL_ROW_20_115
*1557 TAP_TAPCELL_ROW_20_116
*1558 TAP_TAPCELL_ROW_20_117
*1559 TAP_TAPCELL_ROW_20_118
*1560 TAP_TAPCELL_ROW_20_119
*1561 TAP_TAPCELL_ROW_20_120
*1562 TAP_TAPCELL_ROW_21_121
*1563 TAP_TAPCELL_ROW_21_122
*1564 TAP_TAPCELL_ROW_21_123
*1565 TAP_TAPCELL_ROW_21_124
*1566 TAP_TAPCELL_ROW_21_125
*1567 TAP_TAPCELL_ROW_22_126
*1568 TAP_TAPCELL_ROW_22_127
*1569 TAP_TAPCELL_ROW_22_128
*1570 TAP_TAPCELL_ROW_22_129
*1571 TAP_TAPCELL_ROW_22_130
*1572 TAP_TAPCELL_ROW_22_131
*1573 TAP_TAPCELL_ROW_23_132
*1574 TAP_TAPCELL_ROW_23_133
*1575 TAP_TAPCELL_ROW_23_134
*1576 TAP_TAPCELL_ROW_23_135
*1577 TAP_TAPCELL_ROW_23_136
*1578 TAP_TAPCELL_ROW_24_137
*1579 TAP_TAPCELL_ROW_24_138
*1580 TAP_TAPCELL_ROW_24_139
*1581 TAP_TAPCELL_ROW_24_140
*1582 TAP_TAPCELL_ROW_24_141
*1583 TAP_TAPCELL_ROW_24_142
*1584 TAP_TAPCELL_ROW_25_143
*1585 TAP_TAPCELL_ROW_25_144
*1586 TAP_TAPCELL_ROW_25_145
*1587 TAP_TAPCELL_ROW_25_146
*1588 TAP_TAPCELL_ROW_25_147
*1589 TAP_TAPCELL_ROW_26_148
*1590 TAP_TAPCELL_ROW_26_149
*1591 TAP_TAPCELL_ROW_26_150
*1592 TAP_TAPCELL_ROW_26_151
*1593 TAP_TAPCELL_ROW_26_152
*1594 TAP_TAPCELL_ROW_26_153
*1595 TAP_TAPCELL_ROW_27_154
*1596 TAP_TAPCELL_ROW_27_155
*1597 TAP_TAPCELL_ROW_27_156
*1598 TAP_TAPCELL_ROW_27_157
*1599 TAP_TAPCELL_ROW_27_158
*1600 TAP_TAPCELL_ROW_28_159
*1601 TAP_TAPCELL_ROW_28_160
*1602 TAP_TAPCELL_ROW_28_161
*1603 TAP_TAPCELL_ROW_28_162
*1604 TAP_TAPCELL_ROW_28_163
*1605 TAP_TAPCELL_ROW_28_164
*1606 TAP_TAPCELL_ROW_29_165
*1607 TAP_TAPCELL_ROW_29_166
*1608 TAP_TAPCELL_ROW_29_167
*1609 TAP_TAPCELL_ROW_29_168
*1610 TAP_TAPCELL_ROW_29_169
*1611 TAP_TAPCELL_ROW_30_170
*1612 TAP_TAPCELL_ROW_30_171
*1613 TAP_TAPCELL_ROW_30_172
*1614 TAP_TAPCELL_ROW_30_173
*1615 TAP_TAPCELL_ROW_30_174
*1616 TAP_TAPCELL_ROW_30_175
*1617 TAP_TAPCELL_ROW_31_176
*1618 TAP_TAPCELL_ROW_31_177
*1619 TAP_TAPCELL_ROW_31_178
*1620 TAP_TAPCELL_ROW_31_179
*1621 TAP_TAPCELL_ROW_31_180
*1622 TAP_TAPCELL_ROW_32_181
*1623 TAP_TAPCELL_ROW_32_182
*1624 TAP_TAPCELL_ROW_32_183
*1625 TAP_TAPCELL_ROW_32_184
*1626 TAP_TAPCELL_ROW_32_185
*1627 TAP_TAPCELL_ROW_32_186
*1628 TAP_TAPCELL_ROW_33_187
*1629 TAP_TAPCELL_ROW_33_188
*1630 TAP_TAPCELL_ROW_33_189
*1631 TAP_TAPCELL_ROW_33_190
*1632 TAP_TAPCELL_ROW_33_191
*1633 TAP_TAPCELL_ROW_34_192
*1634 TAP_TAPCELL_ROW_34_193
*1635 TAP_TAPCELL_ROW_34_194
*1636 TAP_TAPCELL_ROW_34_195
*1637 TAP_TAPCELL_ROW_34_196
*1638 TAP_TAPCELL_ROW_34_197
*1639 TAP_TAPCELL_ROW_35_198
*1640 TAP_TAPCELL_ROW_35_199
*1641 TAP_TAPCELL_ROW_35_200
*1642 TAP_TAPCELL_ROW_35_201
*1643 TAP_TAPCELL_ROW_35_202
*1644 TAP_TAPCELL_ROW_36_203
*1645 TAP_TAPCELL_ROW_36_204
*1646 TAP_TAPCELL_ROW_36_205
*1647 TAP_TAPCELL_ROW_36_206
*1648 TAP_TAPCELL_ROW_36_207
*1649 TAP_TAPCELL_ROW_36_208
*1650 TAP_TAPCELL_ROW_37_209
*1651 TAP_TAPCELL_ROW_37_210
*1652 TAP_TAPCELL_ROW_37_211
*1653 TAP_TAPCELL_ROW_37_212
*1654 TAP_TAPCELL_ROW_37_213
*1655 TAP_TAPCELL_ROW_38_214
*1656 TAP_TAPCELL_ROW_38_215
*1657 TAP_TAPCELL_ROW_38_216
*1658 TAP_TAPCELL_ROW_38_217
*1659 TAP_TAPCELL_ROW_38_218
*1660 TAP_TAPCELL_ROW_38_219
*1661 TAP_TAPCELL_ROW_39_220
*1662 TAP_TAPCELL_ROW_39_221
*1663 TAP_TAPCELL_ROW_39_222
*1664 TAP_TAPCELL_ROW_39_223
*1665 TAP_TAPCELL_ROW_39_224
*1666 TAP_TAPCELL_ROW_40_225
*1667 TAP_TAPCELL_ROW_40_226
*1668 TAP_TAPCELL_ROW_40_227
*1669 TAP_TAPCELL_ROW_40_228
*1670 TAP_TAPCELL_ROW_40_229
*1671 TAP_TAPCELL_ROW_40_230
*1672 TAP_TAPCELL_ROW_41_231
*1673 TAP_TAPCELL_ROW_41_232
*1674 TAP_TAPCELL_ROW_41_233
*1675 TAP_TAPCELL_ROW_41_234
*1676 TAP_TAPCELL_ROW_41_235
*1677 TAP_TAPCELL_ROW_42_236
*1678 TAP_TAPCELL_ROW_42_237
*1679 TAP_TAPCELL_ROW_42_238
*1680 TAP_TAPCELL_ROW_42_239
*1681 TAP_TAPCELL_ROW_42_240
*1682 TAP_TAPCELL_ROW_42_241
*1683 TAP_TAPCELL_ROW_43_242
*1684 TAP_TAPCELL_ROW_43_243
*1685 TAP_TAPCELL_ROW_43_244
*1686 TAP_TAPCELL_ROW_43_245
*1687 TAP_TAPCELL_ROW_43_246
*1688 TAP_TAPCELL_ROW_44_247
*1689 TAP_TAPCELL_ROW_44_248
*1690 TAP_TAPCELL_ROW_44_249
*1691 TAP_TAPCELL_ROW_44_250
*1692 TAP_TAPCELL_ROW_44_251
*1693 TAP_TAPCELL_ROW_44_252
*1694 TAP_TAPCELL_ROW_45_253
*1695 TAP_TAPCELL_ROW_45_254
*1696 TAP_TAPCELL_ROW_45_255
*1697 TAP_TAPCELL_ROW_45_256
*1698 TAP_TAPCELL_ROW_45_257
*1699 TAP_TAPCELL_ROW_46_258
*1700 TAP_TAPCELL_ROW_46_259
*1701 TAP_TAPCELL_ROW_46_260
*1702 TAP_TAPCELL_ROW_46_261
*1703 TAP_TAPCELL_ROW_46_262
*1704 TAP_TAPCELL_ROW_46_263
*1705 TAP_TAPCELL_ROW_47_264
*1706 TAP_TAPCELL_ROW_47_265
*1707 TAP_TAPCELL_ROW_47_266
*1708 TAP_TAPCELL_ROW_47_267
*1709 TAP_TAPCELL_ROW_47_268
*1710 TAP_TAPCELL_ROW_48_269
*1711 TAP_TAPCELL_ROW_48_270
*1712 TAP_TAPCELL_ROW_48_271
*1713 TAP_TAPCELL_ROW_48_272
*1714 TAP_TAPCELL_ROW_48_273
*1715 TAP_TAPCELL_ROW_48_274
*1716 TAP_TAPCELL_ROW_49_275
*1717 TAP_TAPCELL_ROW_49_276
*1718 TAP_TAPCELL_ROW_49_277
*1719 TAP_TAPCELL_ROW_49_278
*1720 TAP_TAPCELL_ROW_49_279
*1721 TAP_TAPCELL_ROW_50_280
*1722 TAP_TAPCELL_ROW_50_281
*1723 TAP_TAPCELL_ROW_50_282
*1724 TAP_TAPCELL_ROW_50_283
*1725 TAP_TAPCELL_ROW_50_284
*1726 TAP_TAPCELL_ROW_50_285
*1727 TAP_TAPCELL_ROW_51_286
*1728 TAP_TAPCELL_ROW_51_287
*1729 TAP_TAPCELL_ROW_51_288
*1730 TAP_TAPCELL_ROW_51_289
*1731 TAP_TAPCELL_ROW_51_290
*1732 TAP_TAPCELL_ROW_52_291
*1733 TAP_TAPCELL_ROW_52_292
*1734 TAP_TAPCELL_ROW_52_293
*1735 TAP_TAPCELL_ROW_52_294
*1736 TAP_TAPCELL_ROW_52_295
*1737 TAP_TAPCELL_ROW_52_296