*SPEF "ieee 1481-1999"
*DESIGN "pareto_cmp_c0_full"
*DATE "22:34:55 Thursday May 14, 2026"
*VENDOR "The OpenROAD Project"
*PROGRAM "OpenROAD"
*VERSION "v2.0-19993-ga613c7e53"
*DESIGN_FLOW "NAME_SCOPE LOCAL" "PIN_CAP NONE"
*DIVIDER /
*DELIMITER :
*BUS_DELIMITER []
*T_UNIT 1 NS
*C_UNIT 1 PF
*R_UNIT 1 OHM
*L_UNIT 1 HENRY

*NAME_MAP
*1 _000_
*2 _001_
*3 _002_
*4 _003_
*5 _004_
*6 _005_
*7 _006_
*8 _007_
*9 _008_
*10 _009_
*11 _010_
*12 _011_
*13 _012_
*14 _013_
*15 _014_
*16 _015_
*17 _016_
*18 _017_
*19 _018_
*20 _019_
*21 _020_
*22 _021_
*23 _022_
*24 _023_
*25 _024_
*26 _025_
*27 _026_
*28 _027_
*29 _028_
*30 _029_
*31 _030_
*32 _031_
*33 _032_
*34 _033_
*35 _034_
*36 _035_
*37 _036_
*38 _037_
*39 _038_
*40 _039_
*41 _040_
*42 _041_
*43 _042_
*44 _043_
*45 _044_
*46 _045_
*47 _046_
*48 _047_
*49 _048_
*50 _049_
*51 _050_
*52 _051_
*53 _052_
*54 _053_
*55 _054_
*56 _055_
*57 _056_
*58 _057_
*59 _058_
*60 _059_
*61 _060_
*62 _061_
*63 _062_
*64 _063_
*65 _064_
*66 _065_
*67 _066_
*68 _067_
*69 _068_
*70 _069_
*71 _070_
*72 _071_
*73 _072_
*74 _073_
*75 _074_
*76 _075_
*77 _076_
*78 _077_
*79 _078_
*80 _079_
*81 _080_
*82 _081_
*83 _082_
*84 _083_
*85 _084_
*86 _085_
*87 _086_
*88 _087_
*89 _088_
*90 _089_
*91 _090_
*92 _091_
*93 _092_
*94 _093_
*95 _094_
*96 _095_
*97 _096_
*98 _097_
*99 _098_
*100 _099_
*101 _100_
*102 _101_
*103 _102_
*104 _103_
*105 _104_
*106 _105_
*107 _106_
*108 _107_
*109 _108_
*110 _109_
*111 _110_
*112 _111_
*113 _112_
*114 _113_
*115 _114_
*116 _115_
*117 _116_
*118 _117_
*119 _118_
*120 _119_
*121 _120_
*122 _121_
*123 _122_
*124 _123_
*125 _124_
*126 _125_
*127 _126_
*128 _127_
*129 _128_
*130 _129_
*131 _130_
*132 _131_
*133 _132_
*134 _133_
*135 _134_
*136 _135_
*137 _136_
*138 _137_
*139 _138_
*140 _139_
*141 _140_
*142 _141_
*143 _142_
*144 _143_
*145 _144_
*146 _145_
*147 _146_
*148 _147_
*149 _148_
*150 _149_
*151 _150_
*152 _151_
*153 _152_
*154 _153_
*155 _154_
*156 _155_
*157 _156_
*158 _157_
*159 _158_
*160 _159_
*161 _160_
*162 _161_
*163 _162_
*164 _163_
*165 _164_
*166 _165_
*167 _166_
*168 _167_
*169 _168_
*170 _169_
*171 _170_
*172 _171_
*173 _172_
*174 _173_
*175 _174_
*176 _175_
*177 _176_
*178 _177_
*179 _178_
*180 _179_
*181 _180_
*182 _181_
*183 _182_
*184 _183_
*185 _184_
*186 _185_
*187 _186_
*188 _187_
*189 _188_
*190 _189_
*191 _190_
*192 _191_
*193 _192_
*194 _193_
*195 _194_
*196 _195_
*197 _196_
*198 _197_
*199 _198_
*200 _199_
*201 _200_
*202 _201_
*203 _202_
*204 _203_
*205 _204_
*206 _205_
*207 _206_
*208 _207_
*209 _208_
*210 _209_
*211 _210_
*212 _211_
*213 _212_
*214 _213_
*215 _214_
*216 _215_
*217 _216_
*218 _217_
*219 _218_
*220 _219_
*221 _220_
*222 _221_
*223 _222_
*224 _223_
*225 _224_
*226 _225_
*227 _226_
*228 _227_
*229 _228_
*230 _229_
*231 _230_
*232 _231_
*233 _232_
*234 _233_
*235 _234_
*236 _235_
*237 _236_
*238 _237_
*239 _238_
*240 _239_
*241 _240_
*242 _241_
*243 _242_
*244 _243_
*245 _244_
*246 _245_
*247 _246_
*248 _247_
*249 _248_
*250 _249_
*251 _250_
*252 _251_
*253 _252_
*254 _253_
*255 _254_
*256 _255_
*257 _256_
*258 _257_
*259 _258_
*260 _259_
*261 _260_
*262 _261_
*263 _262_
*264 _263_
*265 _264_
*266 _265_
*267 _266_
*268 _267_
*269 _268_
*270 _269_
*271 _270_
*272 _271_
*273 _272_
*274 _273_
*275 _274_
*276 _275_
*277 _276_
*278 _277_
*279 _278_
*280 _279_
*281 _280_
*282 _281_
*283 _282_
*284 _283_
*285 _284_
*286 _285_
*287 _286_
*288 _287_
*289 _288_
*290 _289_
*291 _290_
*292 _291_
*293 _292_
*294 _293_
*295 _294_
*296 _295_
*297 _296_
*298 _297_
*299 _298_
*300 _299_
*301 _300_
*302 _301_
*303 _302_
*304 _303_
*305 _304_
*306 _305_
*307 _306_
*308 _307_
*309 _308_
*310 _309_
*311 _310_
*312 _311_
*313 _312_
*314 _313_
*315 _314_
*316 _315_
*317 _316_
*318 _317_
*319 _318_
*320 _319_
*321 _320_
*322 _321_
*323 _322_
*324 _323_
*325 _324_
*326 _325_
*327 _326_
*328 _327_
*329 _328_
*330 _329_
*331 _330_
*332 _331_
*333 _332_
*334 _333_
*335 _334_
*336 _335_
*337 _336_
*338 _337_
*339 _338_
*340 _339_
*341 _340_
*342 _341_
*343 _342_
*344 _343_
*345 _344_
*346 _345_
*347 _346_
*348 _347_
*349 _348_
*350 _349_
*351 _350_
*352 _351_
*353 _352_
*354 _353_
*355 _354_
*356 _355_
*357 _356_
*358 _357_
*359 _358_
*360 _359_
*361 _360_
*362 _361_
*363 _362_
*364 _363_
*365 _364_
*366 _365_
*367 _366_
*368 _367_
*369 _368_
*370 _369_
*371 _370_
*372 _371_
*373 _372_
*374 _373_
*375 _374_
*376 _375_
*377 _376_
*378 _377_
*379 _378_
*380 _379_
*381 _380_
*382 _381_
*383 _382_
*384 _383_
*385 _384_
*386 _385_
*387 _386_
*388 _387_
*389 _388_
*390 _389_
*391 _390_
*392 _391_
*393 _392_
*394 _393_
*395 _394_
*396 _395_
*397 _396_
*398 _397_
*399 _398_
*400 _399_
*401 _400_
*402 _401_
*403 _402_
*404 _403_
*405 _404_
*406 _405_
*407 _406_
*408 _407_
*409 _408_
*410 _409_
*411 _410_
*412 _411_
*413 _412_
*414 _413_
*415 _414_
*416 _415_
*417 _416_
*418 _417_
*419 _418_
*420 _419_
*421 _420_
*422 _421_
*423 _422_
*424 _423_
*425 _424_
*426 _425_
*427 _426_
*428 _427_
*429 _428_
*430 _429_
*431 _430_
*432 _431_
*433 _432_
*434 net179
*435 net180
*436 clk
*437 net181
*438 fidelity_a[0]
*439 fidelity_a[10]
*440 fidelity_a[11]
*441 fidelity_a[12]
*442 fidelity_a[13]
*443 fidelity_a[14]
*444 fidelity_a[15]
*445 fidelity_a[1]
*446 fidelity_a[2]
*447 fidelity_a[3]
*448 fidelity_a[4]
*449 fidelity_a[5]
*450 fidelity_a[6]
*451 fidelity_a[7]
*452 fidelity_a[8]
*453 fidelity_a[9]
*454 fidelity_b[0]
*455 fidelity_b[10]
*456 fidelity_b[11]
*457 fidelity_b[12]
*458 fidelity_b[13]
*459 fidelity_b[14]
*460 fidelity_b[15]
*461 fidelity_b[1]
*462 fidelity_b[2]
*463 fidelity_b[3]
*464 fidelity_b[4]
*465 fidelity_b[5]
*466 fidelity_b[6]
*467 fidelity_b[7]
*468 fidelity_b[8]
*469 fidelity_b[9]
*470 hop_count_a[0]
*471 hop_count_a[1]
*472 hop_count_a[2]
*473 hop_count_a[3]
*474 hop_count_a[4]
*475 hop_count_a[5]
*476 hop_count_a[6]
*477 hop_count_a[7]
*478 hop_count_b[0]
*479 hop_count_b[1]
*480 hop_count_b[2]
*481 hop_count_b[3]
*482 hop_count_b[4]
*483 hop_count_b[5]
*484 hop_count_b[6]
*485 hop_count_b[7]
*486 key_count_a[0]
*487 key_count_a[10]
*488 key_count_a[11]
*489 key_count_a[12]
*490 key_count_a[13]
*491 key_count_a[14]
*492 key_count_a[15]
*493 key_count_a[1]
*494 key_count_a[2]
*495 key_count_a[3]
*496 key_count_a[4]
*497 key_count_a[5]
*498 key_count_a[6]
*499 key_count_a[7]
*500 key_count_a[8]
*501 key_count_a[9]
*502 key_count_b[0]
*503 key_count_b[10]
*504 key_count_b[11]
*505 key_count_b[12]
*506 key_count_b[13]
*507 key_count_b[14]
*508 key_count_b[15]
*509 key_count_b[1]
*510 key_count_b[2]
*511 key_count_b[3]
*512 key_count_b[4]
*513 key_count_b[5]
*514 key_count_b[6]
*515 key_count_b[7]
*516 key_count_b[8]
*517 key_count_b[9]
*518 qber_a[0]
*519 qber_a[10]
*520 qber_a[11]
*521 qber_a[12]
*522 qber_a[13]
*523 qber_a[14]
*524 qber_a[15]
*525 qber_a[1]
*526 qber_a[2]
*527 qber_a[3]
*528 qber_a[4]
*529 qber_a[5]
*530 qber_a[6]
*531 qber_a[7]
*532 qber_a[8]
*533 qber_a[9]
*534 qber_b[0]
*535 qber_b[10]
*536 qber_b[11]
*537 qber_b[12]
*538 qber_b[13]
*539 qber_b[14]
*540 qber_b[15]
*541 qber_b[1]
*542 qber_b[2]
*543 qber_b[3]
*544 qber_b[4]
*545 qber_b[5]
*546 qber_b[6]
*547 qber_b[7]
*548 qber_b[8]
*549 qber_b[9]
*550 rst_n
*551 score_a[0]
*552 score_a[10]
*553 score_a[11]
*554 score_a[12]
*555 score_a[13]
*556 score_a[14]
*557 score_a[15]
*558 score_a[16]
*559 score_a[17]
*560 score_a[18]
*561 score_a[19]
*562 score_a[1]
*563 score_a[20]
*564 score_a[21]
*565 score_a[22]
*566 score_a[23]
*567 score_a[24]
*568 score_a[25]
*569 score_a[26]
*570 score_a[27]
*571 score_a[28]
*572 score_a[29]
*573 score_a[2]
*574 score_a[30]
*575 score_a[31]
*576 score_a[3]
*577 score_a[4]
*578 score_a[5]
*579 score_a[6]
*580 score_a[7]
*581 score_a[8]
*582 score_a[9]
*583 score_b[0]
*584 score_b[10]
*585 score_b[11]
*586 score_b[12]
*587 score_b[13]
*588 score_b[14]
*589 score_b[15]
*590 score_b[16]
*591 score_b[17]
*592 score_b[18]
*593 score_b[19]
*594 score_b[1]
*595 score_b[20]
*596 score_b[21]
*597 score_b[22]
*598 score_b[23]
*599 score_b[24]
*600 score_b[25]
*601 score_b[26]
*602 score_b[27]
*603 score_b[28]
*604 score_b[29]
*605 score_b[2]
*606 score_b[30]
*607 score_b[31]
*608 score_b[3]
*609 score_b[4]
*610 score_b[5]
*611 score_b[6]
*612 score_b[7]
*613 score_b[8]
*614 score_b[9]
*615 net182
*616 net183
*617 start
*618 net184
*621 net1
*622 net2
*623 net3
*624 net4
*625 net5
*626 net6
*627 net7
*628 net8
*629 net9
*630 net10
*631 net11
*632 net12
*633 net13
*634 net14
*635 net15
*636 net16
*637 net17
*638 net18
*639 net19
*640 net20
*641 net21
*642 net22
*643 net23
*644 net24
*645 net25
*646 net26
*647 net27
*648 net28
*649 net29
*650 net30
*651 net31
*652 net32
*653 net33
*654 net34
*655 net35
*656 net36
*657 net37
*658 net38
*659 net39
*660 net40
*661 net41
*662 net42
*663 net43
*664 net44
*665 net45
*666 net46
*667 net47
*668 net48
*669 net49
*670 net50
*671 net51
*672 net52
*673 net53
*674 net54
*675 net55
*676 net56
*677 net57
*678 net58
*679 net59
*680 net60
*681 net61
*682 net62
*683 net63
*684 net64
*685 net65
*686 net66
*687 net67
*688 net68
*689 net69
*690 net70
*691 net71
*692 net72
*693 net73
*694 net74
*695 net75
*696 net76
*697 net77
*698 net78
*699 net79
*700 net80
*701 net81
*702 net82
*703 net83
*704 net84
*705 net85
*706 net86
*707 net87
*708 net88
*709 net89
*710 net90
*711 net91
*712 net92
*713 net93
*714 net94
*715 net95
*716 net96
*717 net97
*718 net98
*719 net99
*720 net100
*721 net101
*722 net102
*723 net103
*724 net104
*725 net105
*726 net106
*727 net107
*728 net108
*729 net109
*730 net110
*731 net111
*732 net112
*733 net113
*734 net114
*735 net115
*736 net116
*737 net117
*738 net118
*739 net119
*740 net120
*741 net121
*742 net122
*743 net123
*744 net124
*745 net125
*746 net126
*747 net127
*748 net128
*749 net129
*750 net130
*751 net131
*752 net132
*753 net133
*754 net134
*755 net135
*756 net136
*757 net137
*758 net138
*759 net139
*760 net140
*761 net141
*762 net142
*763 net143
*764 net144
*765 net145
*766 net146
*767 net147
*768 net148
*769 net149
*770 net150
*771 net151
*772 net152
*773 net153
*774 net154
*775 net155
*776 net156
*777 net157
*778 net158
*779 net159
*780 net160
*781 net161
*782 net162
*783 net163
*784 net164
*785 net165
*786 net166
*787 net167
*788 net168
*789 net169
*790 net170
*791 net171
*792 net172
*793 net173
*794 net174
*795 net175
*796 net176
*797 net177
*798 net178
*799 a_dominates_b
*800 b_dominates_a
*801 done
*802 select_a
*803 select_b
*804 tie
*805 clknet_0_clk
*806 clknet_1_0__leaf_clk
*807 clknet_1_1__leaf_clk
*808 _433_
*809 _434_
*810 _435_
*811 _436_
*812 _437_
*813 _438_
*814 _439_
*815 _440_
*816 _441_
*817 _442_
*818 _443_
*819 _444_
*820 _445_
*821 _446_
*822 _447_
*823 _448_
*824 _449_
*825 _450_
*826 _451_
*827 _452_
*828 _453_
*829 _454_
*830 _455_
*831 _456_
*832 _457_
*833 _458_
*834 _459_
*835 _460_
*836 _461_
*837 _462_
*838 _463_
*839 _464_
*840 _465_
*841 _466_
*842 _467_
*843 _468_
*844 _469_
*845 _470_
*846 _471_
*847 _472_
*848 _473_
*849 _474_
*850 _475_
*851 _476_
*852 _477_
*853 _478_
*854 _479_
*855 _480_
*856 _481_
*857 _482_
*858 _483_
*859 _484_
*860 _485_
*861 _486_
*862 _487_
*863 _488_
*864 _489_
*865 _490_
*866 _491_
*867 _492_
*868 _493_
*869 _494_
*870 _495_
*871 _496_
*872 _497_
*873 _498_
*874 _499_
*875 _500_
*876 _501_
*877 _502_
*878 _503_
*879 _504_
*880 _505_
*881 _506_
*882 _507_
*883 _508_
*884 _509_
*885 _510_
*886 _511_
*887 _512_
*888 _513_
*889 _514_
*890 _515_
*891 _516_
*892 _517_
*893 _518_
*894 _519_
*895 _520_
*896 _521_
*897 _522_
*898 _523_
*899 _524_
*900 _525_
*901 _526_
*902 _527_
*903 _528_
*904 _529_
*905 _530_
*906 _531_
*907 _532_
*908 _533_
*909 _534_
*910 _535_
*911 _536_
*912 _537_
*913 _538_
*914 _539_
*915 _540_
*916 _541_
*917 _542_
*918 _543_
*919 _544_
*920 _545_
*921 _546_
*922 _547_
*923 _548_
*924 _549_
*925 _550_
*926 _551_
*927 _552_
*928 _553_
*929 _554_
*930 _555_
*931 _556_
*932 _557_
*933 _558_
*934 _559_
*935 _560_
*936 _561_
*937 _562_
*938 _563_
*939 _564_
*940 _565_
*941 _566_
*942 _567_
*943 _568_
*944 _569_
*945 _570_
*946 _571_
*947 _572_
*948 _573_
*949 _574_
*950 _575_
*951 _576_
*952 _577_
*953 _578_
*954 _579_
*955 _580_
*956 _581_
*957 _582_
*958 _583_
*959 _584_
*960 _585_
*961 _586_
*962 _587_
*963 _588_
*964 _589_
*965 _590_
*966 _591_
*967 _592_
*968 _593_
*969 _594_
*970 _595_
*971 _596_
*972 _597_
*973 _598_
*974 _599_
*975 _600_
*976 _601_
*977 _602_
*978 _603_
*979 _604_
*980 _605_
*981 _606_
*982 _607_
*983 _608_
*984 _609_
*985 _610_
*986 _611_
*987 _612_
*988 _613_
*989 _614_
*990 _615_
*991 _616_
*992 _617_
*993 _618_
*994 _619_
*995 _620_
*996 _621_
*997 _622_
*998 _623_
*999 _624_
*1000 _625_
*1001 _626_
*1002 _627_
*1003 _628_
*1004 _629_
*1005 _630_
*1006 _631_
*1007 _632_
*1008 _633_
*1009 _634_
*1010 _635_
*1011 _636_
*1012 _637_
*1013 _638_
*1014 _639_
*1015 _640_
*1016 _641_
*1017 _642_
*1018 _643_
*1019 _644_
*1020 _645_
*1021 _646_
*1022 _647_
*1023 _648_
*1024 _649_
*1025 _650_
*1026 _651_
*1027 _652_
*1028 _653_
*1029 _654_
*1030 _655_
*1031 _656_
*1032 _657_
*1033 _658_
*1034 _659_
*1035 _660_
*1036 _661_
*1037 _662_
*1038 _663_
*1039 _664_
*1040 _665_
*1041 _666_
*1042 _667_
*1043 _668_
*1044 _669_
*1045 _670_
*1046 _671_
*1047 _672_
*1048 _673_
*1049 _674_
*1050 _675_
*1051 _676_
*1052 _677_
*1053 _678_
*1054 _679_
*1055 _680_
*1056 _681_
*1057 _682_
*1058 _683_
*1059 _684_
*1060 _685_
*1061 _686_
*1062 _687_
*1063 _688_
*1064 _689_
*1065 _690_
*1066 _691_
*1067 _692_
*1068 _693_
*1069 _694_
*1070 _695_
*1071 _696_
*1072 _697_
*1073 _698_
*1074 _699_
*1075 _700_
*1076 _701_
*1077 _702_
*1078 _703_
*1079 _704_
*1080 _705_
*1081 _706_
*1082 _707_
*1083 _708_
*1084 _709_
*1085 _710_
*1086 _711_
*1087 _712_
*1088 _713_
*1089 _714_
*1090 _715_
*1091 _716_
*1092 _717_
*1093 _718_
*1094 _719_
*1095 _720_
*1096 _721_
*1097 _722_
*1098 _723_
*1099 _724_
*1100 _725_
*1101 _726_
*1102 _727_
*1103 _728_
*1104 _729_
*1105 _730_
*1106 _731_
*1107 _732_
*1108 _733_
*1109 _734_
*1110 _735_
*1111 _736_
*1112 _737_
*1113 _738_
*1114 _739_
*1115 _740_
*1116 _741_
*1117 _742_
*1118 _743_
*1119 _744_
*1120 _745_
*1121 _746_
*1122 _747_
*1123 _748_
*1124 _749_
*1125 _750_
*1126 _751_
*1127 _752_
*1128 _753_
*1129 _754_
*1130 _755_
*1131 _756_
*1132 _757_
*1133 _758_
*1134 _759_
*1135 _760_
*1136 _761_
*1137 _762_
*1138 _763_
*1139 _764_
*1140 _765_
*1141 _766_
*1142 _767_
*1143 _768_
*1144 _769_
*1145 _770_
*1146 _771_
*1147 _772_
*1148 _773_
*1149 _774_
*1150 _775_
*1151 _776_
*1152 _777_
*1153 a_dominates_b\$_SDFFE_PN0P_
*1154 b_dominates_a\$_SDFFE_PN0P_
*1155 done\$_SDFF_PN0_
*1156 select_a\$_SDFFE_PN0P_
*1157 select_b\$_SDFFE_PN0P_
*1158 tie\$_SDFFE_PN0P_
*1159 TAP_TAPCELL_ROW_0_0
*1160 TAP_TAPCELL_ROW_0_1
*1161 TAP_TAPCELL_ROW_0_2
*1162 TAP_TAPCELL_ROW_0_3
*1163 TAP_TAPCELL_ROW_0_4
*1164 TAP_TAPCELL_ROW_0_5
*1165 TAP_TAPCELL_ROW_0_6
*1166 TAP_TAPCELL_ROW_0_7
*1167 TAP_TAPCELL_ROW_0_8
*1168 TAP_TAPCELL_ROW_0_9
*1169 TAP_TAPCELL_ROW_0_10
*1170 TAP_TAPCELL_ROW_1_11
*1171 TAP_TAPCELL_ROW_1_12
*1172 TAP_TAPCELL_ROW_1_13
*1173 TAP_TAPCELL_ROW_1_14
*1174 TAP_TAPCELL_ROW_1_15
*1175 TAP_TAPCELL_ROW_2_16
*1176 TAP_TAPCELL_ROW_2_17
*1177 TAP_TAPCELL_ROW_2_18
*1178 TAP_TAPCELL_ROW_2_19
*1179 TAP_TAPCELL_ROW_2_20
*1180 TAP_TAPCELL_ROW_2_21
*1181 TAP_TAPCELL_ROW_3_22
*1182 TAP_TAPCELL_ROW_3_23
*1183 TAP_TAPCELL_ROW_3_24
*1184 TAP_TAPCELL_ROW_3_25
*1185 TAP_TAPCELL_ROW_3_26
*1186 TAP_TAPCELL_ROW_4_27
*1187 TAP_TAPCELL_ROW_4_28
*1188 TAP_TAPCELL_ROW_4_29
*1189 TAP_TAPCELL_ROW_4_30
*1190 TAP_TAPCELL_ROW_4_31
*1191 TAP_TAPCELL_ROW_4_32
*1192 TAP_TAPCELL_ROW_5_33
*1193 TAP_TAPCELL_ROW_5_34
*1194 TAP_TAPCELL_ROW_5_35
*1195 TAP_TAPCELL_ROW_5_36
*1196 TAP_TAPCELL_ROW_5_37
*1197 TAP_TAPCELL_ROW_6_38
*1198 TAP_TAPCELL_ROW_6_39
*1199 TAP_TAPCELL_ROW_6_40
*1200 TAP_TAPCELL_ROW_6_41
*1201 TAP_TAPCELL_ROW_6_42
*1202 TAP_TAPCELL_ROW_6_43
*1203 TAP_TAPCELL_ROW_7_44
*1204 TAP_TAPCELL_ROW_7_45
*1205 TAP_TAPCELL_ROW_7_46
*1206 TAP_TAPCELL_ROW_7_47
*1207 TAP_TAPCELL_ROW_7_48
*1208 TAP_TAPCELL_ROW_8_49
*1209 TAP_TAPCELL_ROW_8_50
*1210 TAP_TAPCELL_ROW_8_51
*1211 TAP_TAPCELL_ROW_8_52
*1212 TAP_TAPCELL_ROW_8_53
*1213 TAP_TAPCELL_ROW_8_54
*1214 TAP_TAPCELL_ROW_9_55
*1215 TAP_TAPCELL_ROW_9_56
*1216 TAP_TAPCELL_ROW_9_57
*1217 TAP_TAPCELL_ROW_9_58
*1218 TAP_TAPCELL_ROW_9_59
*1219 TAP_TAPCELL_ROW_10_60
*1220 TAP_TAPCELL_ROW_10_61
*1221 TAP_TAPCELL_ROW_10_62
*1222 TAP_TAPCELL_ROW_10_63
*1223 TAP_TAPCELL_ROW_10_64
*1224 TAP_TAPCELL_ROW_10_65
*1225 TAP_TAPCELL_ROW_11_66
*1226 TAP_TAPCELL_ROW_11_67
*1227 TAP_TAPCELL_ROW_11_68
*1228 TAP_TAPCELL_ROW_11_69
*1229 TAP_TAPCELL_ROW_11_70
*1230 TAP_TAPCELL_ROW_12_71
*1231 TAP_TAPCELL_ROW_12_72
*1232 TAP_TAPCELL_ROW_12_73
*1233 TAP_TAPCELL_ROW_12_74
*1234 TAP_TAPCELL_ROW_12_75
*1235 TAP_TAPCELL_ROW_12_76
*1236 TAP_TAPCELL_ROW_13_77
*1237 TAP_TAPCELL_ROW_13_78
*1238 TAP_TAPCELL_ROW_13_79
*1239 TAP_TAPCELL_ROW_13_80
*1240 TAP_TAPCELL_ROW_13_81
*1241 TAP_TAPCELL_ROW_14_82
*1242 TAP_TAPCELL_ROW_14_83
*1243 TAP_TAPCELL_ROW_14_84
*1244 TAP_TAPCELL_ROW_14_85
*1245 TAP_TAPCELL_ROW_14_86
*1246 TAP_TAPCELL_ROW_14_87
*1247 TAP_TAPCELL_ROW_15_88
*1248 TAP_TAPCELL_ROW_15_89
*1249 TAP_TAPCELL_ROW_15_90
*1250 TAP_TAPCELL_ROW_15_91
*1251 TAP_TAPCELL_ROW_15_92
*1252 TAP_TAPCELL_ROW_16_93
*1253 TAP_TAPCELL_ROW_16_94
*1254 TAP_TAPCELL_ROW_16_95
*1255 TAP_TAPCELL_ROW_16_96
*1256 TAP_TAPCELL_ROW_16_97
*1257 TAP_TAPCELL_ROW_16_98
*1258 TAP_TAPCELL_ROW_17_99
*1259 TAP_TAPCELL_ROW_17_100
*1260 TAP_TAPCELL_ROW_17_101
*1261 TAP_TAPCELL_ROW_17_102
*1262 TAP_TAPCELL_ROW_17_103
*1263 TAP_TAPCELL_ROW_18_104
*1264 TAP_TAPCELL_ROW_18_105
*1265 TAP_TAPCELL_ROW_18_106
*1266 TAP_TAPCELL_ROW_18_107
*1267 TAP_TAPCELL_ROW_18_108
*1268 TAP_TAPCELL_ROW_18_109
*1269 TAP_TAPCELL_ROW_19_110
*1270 TAP_TAPCELL_ROW_19_111
*1271 TAP_TAPCELL_ROW_19_112
*1272 TAP_TAPCELL_ROW_19_113
*1273 TAP_TAPCELL_ROW_19_114
*1274 TAP_TAPCELL_ROW_20_115
*1275 TAP_TAPCELL_ROW_20_116
*1276 TAP_TAPCELL_ROW_20_117
*1277 TAP_TAPCELL_ROW_20_118
*1278 TAP_TAPCELL_ROW_20_119
*1279 TAP_TAPCELL_ROW_20_120
*1280 TAP_TAPCELL_ROW_21_121
*1281 TAP_TAPCELL_ROW_21_122
*1282 TAP_TAPCELL_ROW_21_123
*1283 TAP_TAPCELL_ROW_21_124
*1284 TAP_TAPCELL_ROW_21_125
*1285 TAP_TAPCELL_ROW_22_126
*1286 TAP_TAPCELL_ROW_22_127
*1287 TAP_TAPCELL_ROW_22_128
*1288 TAP_TAPCELL_ROW_22_129
*1289 TAP_TAPCELL_ROW_22_130
*1290 TAP_TAPCELL_ROW_22_131
*1291 TAP_TAPCELL_ROW_23_132
*1292 TAP_TAPCELL_ROW_23_133
*1293 TAP_TAPCELL_ROW_23_134
*1294 TAP_TAPCELL_ROW_23_135
*1295 TAP_TAPCELL_ROW_23_136
*1296 TAP_TAPCELL_ROW_24_137
*1297 TAP_TAPCELL_ROW_24_138
*1298 TAP_TAPCELL_ROW_24_139
*1299 TAP_TAPCELL_ROW_24_140
*1300 TAP_TAPCELL_ROW_24_141
*1301 TAP_TAPCELL_ROW_24_142
*1302 TAP_TAPCELL_ROW_25_143
*1303 TAP_TAPCELL_ROW_25_144
*1304 TAP_TAPCELL_ROW_25_145
*1305 TAP_TAPCELL_ROW_25_146
*1306 TAP_TAPCELL_ROW_25_147
*1307 TAP_TAPCELL_ROW_26_148
*1308 TAP_TAPCELL_ROW_26_149
*1309 TAP_TAPCELL_ROW_26_150
*1310 TAP_TAPCELL_ROW_26_151
*1311 TAP_TAPCELL_ROW_26_152
*1312 TAP_TAPCELL_ROW_26_153
*1313 TAP_TAPCELL_ROW_27_154
*1314 TAP_TAPCELL_ROW_27_155
*1315 TAP_TAPCELL_ROW_27_156
*1316 TAP_TAPCELL_ROW_27_157
*1317 TAP_TAPCELL_ROW_27_158
*1318 TAP_TAPCELL_ROW_28_159
*1319 TAP_TAPCELL_ROW_28_160
*1320 TAP_TAPCELL_ROW_28_161
*1321 TAP_TAPCELL_ROW_28_162
*1322 TAP_TAPCELL_ROW_28_163
*1323 TAP_TAPCELL_ROW_28_164
*1324 TAP_TAPCELL_ROW_29_165
*1325 TAP_TAPCELL_ROW_29_166
*1326 TAP_TAPCELL_ROW_29_167
*1327 TAP_TAPCELL_ROW_29_168
*1328 TAP_TAPCELL_ROW_29_169
*1329 TAP_TAPCELL_ROW_30_170
*1330 TAP_TAPCELL_ROW_30_171
*1331 TAP_TAPCELL_ROW_30_172
*1332 TAP_TAPCELL_ROW_30_173
*1333 TAP_TAPCELL_ROW_30_174
*1334 TAP_TAPCELL_ROW_30_175
*1335 TAP_TAPCELL_ROW_31_176
*1336 TAP_TAPCELL_ROW_31_177
*1337 TAP_TAPCELL_ROW_31_178
*1338 TAP_TAPCELL_ROW_31_179
*1339 TAP_TAPCELL_ROW_31_180
*1340 TAP_TAPCELL_ROW_32_181
*1341 TAP_TAPCELL_ROW_32_182
*1342 TAP_TAPCELL_ROW_32_183
*1343 TAP_TAPCELL_ROW_32_184
*1344 TAP_TAPCELL_ROW_32_185
*1345 TAP_TAPCELL_ROW_32_186
*1346 TAP_TAPCELL_ROW_33_187
*1347 TAP_TAPCELL_ROW_33_188
*1348 TAP_TAPCELL_ROW_33_189
*1349 TAP_TAPCELL_ROW_33_190
*1350 TAP_TAPCELL_ROW_33_191
*1351 TAP_TAPCELL_ROW_34_192
*1352 TAP_TAPCELL_ROW_34_193
*1353 TAP_TAPCELL_ROW_34_194
*1354 TAP_TAPCELL_ROW_34_195
*1355 TAP_TAPCELL_ROW_34_196
*1356 TAP_TAPCELL_ROW_34_197
*1357 TAP_TAPCELL_ROW_35_198
*1358 TAP_TAPCELL_ROW_35_199
*1359 TAP_TAPCELL_ROW_35_200
*1360 TAP_TAPCELL_ROW_35_201
*1361 TAP_TAPCELL_ROW_35_202
*1362 TAP_TAPCELL_ROW_36_203
*1363 TAP_TAPCELL_ROW_36_204
*1364 TAP_TAPCELL_ROW_36_205
*1365 TAP_TAPCELL_ROW_36_206
*1366 TAP_TAPCELL_ROW_36_207
*1367 TAP_TAPCELL_ROW_36_208
*1368 TAP_TAPCELL_ROW_37_209
*1369 TAP_TAPCELL_ROW_37_210
*1370 TAP_TAPCELL_ROW_37_211
*1371 TAP_TAPCELL_ROW_37_212
*1372 TAP_TAPCELL_ROW_37_213
*1373 TAP_TAPCELL_ROW_38_214
*1374 TAP_TAPCELL_ROW_38_215
*1375 TAP_TAPCELL_ROW_38_216
*1376 TAP_TAPCELL_ROW_38_217
*1377 TAP_TAPCELL_ROW_38_218
*1378 TAP_TAPCELL_ROW_38_219
*1379 TAP_TAPCELL_ROW_39_220
*1380 TAP_TAPCELL_ROW_39_221
*1381 TAP_TAPCELL_ROW_39_222
*1382 TAP_TAPCELL_ROW_39_223
*1383 TAP_TAPCELL_ROW_39_224
*1384 TAP_TAPCELL_ROW_40_225
*1385 TAP_TAPCELL_ROW_40_226
*1386 TAP_TAPCELL_ROW_40_227
*1387 TAP_TAPCELL_ROW_40_228
*1388 TAP_TAPCELL_ROW_40_229
*1389 TAP_TAPCELL_ROW_40_230
*1390 TAP_TAPCELL_ROW_41_231
*1391 TAP_TAPCELL_ROW_41_232
*1392 TAP_TAPCELL_ROW_41_233
*1393 TAP_TAPCELL_ROW_41_234
*1394 TAP_TAPCELL_ROW_41_235
*1395 TAP_TAPCELL_ROW_42_236
*1396 TAP_TAPCELL_ROW_42_237
*1397 TAP_TAPCELL_ROW_42_238
*1398 TAP_TAPCELL_ROW_42_239
*1399 TAP_TAPCELL_ROW_42_240
*1400 TAP_TAPCELL_ROW_42_241
*1401 TAP_TAPCELL_ROW_43_242
*1402 TAP_TAPCELL_ROW_43_243
*1403 TAP_TAPCELL_ROW_43_244
*1404 TAP_TAPCELL_ROW_43_245
*1405 TAP_TAPCELL_ROW_43_246
*1406 TAP_TAPCELL_ROW_44_247
*1407 TAP_TAPCELL_ROW_44_248
*1408 TAP_TAPCELL_ROW_44_249
*1409 TAP_TAPCELL_ROW_44_250
*1410 TAP_TAPCELL_ROW_44_251
*1411 TAP_TAPCELL_ROW_44_252
*1412 TAP_TAPCELL_ROW_45_253
*1413 TAP_TAPCELL_ROW_45_254
*1414 TAP_TAPCELL_ROW_45_255
*1415 TAP_TAPCELL_ROW_45_256
*1416 TAP_TAPCELL_ROW_45_257
*1417 TAP_TAPCELL_ROW_46_258
*1418 TAP_TAPCELL_ROW_46_259
*1419 TAP_TAPCELL_ROW_46_260
*1420 TAP_TAPCELL_ROW_46_261
*1421 TAP_TAPCELL_ROW_46_262
*1422 TAP_TAPCELL_ROW_46_263
*1423 TAP_TAPCELL_ROW_47_264
*1424 TAP_TAPCELL_ROW_47_265
*1425 TAP_TAPCELL_ROW_47_266
*1426 TAP_TAPCELL_ROW_47_267
*1427 TAP_TAPCELL_ROW_47_268
*1428 TAP_TAPCELL_ROW_48_269
*1429 TAP_TAPCELL_ROW_48_270
*1430 TAP_TAPCELL_ROW_48_271
*1431 TAP_TAPCELL_ROW_48_272
*1432 TAP_TAPCELL_ROW_48_273
*1433 TAP_TAPCELL_ROW_48_274
*1434 TAP_TAPCELL_ROW_49_275
*1435 TAP_TAPCELL_ROW_49_276
*1436 TAP_TAPCELL_ROW_49_277
*1437 TAP_TAPCELL_ROW_49_278
*1438 TAP_TAPCELL_ROW_49_279
*1439 TAP_TAPCELL_ROW_50_280
*1440 TAP_TAPCELL_ROW_50_281
*1441 TAP_TAPCELL_ROW_50_282
*1442 TAP_TAPCELL_ROW_50_283
*1443 TAP_TAPCELL_ROW_50_284
*1444 TAP_TAPCELL_ROW_50_285
*1445 TAP_TAPCELL_ROW_51_286
*1446 TAP_TAPCELL_ROW_51_287
*1447 TAP_TAPCELL_ROW_51_288
*1448 TAP_TAPCELL_ROW_51_289
*1449 TAP_TAPCELL_ROW_51_290
*1450 TAP_TAPCELL_ROW_52_291
*1451 TAP_TAPCELL_ROW_52_292
*1452 TAP_TAPCELL_ROW_52_293
*1453 TAP_TAPCELL_ROW_52_294
*1454 TAP_TAPCELL_ROW_52_295
*1455 TAP_TAPCELL_ROW_52_296
*1456 TAP_TAPCELL_ROW_53_297
*1457 TAP_TAPCELL_ROW_53_298
*1458 TAP_TAPCELL_ROW_53_299
*1459 TAP_TAPCELL_ROW_53_300
*1460 TAP_TAPCELL_ROW_53_301
*1461 TAP_TAPCELL_ROW_54_302
*1462 TAP_TAPCELL_ROW_54_303
*1463 TAP_TAPCELL_ROW_54_304
*1464 TAP_TAPCELL_ROW_54_305
*1465 TAP_TAPCELL_ROW_54_306
*1466 TAP_TAPCELL_ROW_54_307
*1467 TAP_TAPCELL_ROW_55_308
*1468 TAP_TAPCELL_ROW_55_309
*1469 TAP_TAPCELL_ROW_55_310
*1470 TAP_TAPCELL_ROW_55_311
*1471 TAP_TAPCELL_ROW_55_312
*1472 TAP_TAPCELL_ROW_56_313
*1473 TAP_TAPCELL_ROW_56_314
*1474 TAP_TAPCELL_ROW_56_315
*1475 TAP_TAPCELL_ROW_56_316
*1476 TAP_TAPCELL_ROW_56_317
*1477 TAP_TAPCELL_ROW_56_318
*1478 TAP_TAPCELL_ROW_57_319
*1479 TAP_TAPCELL_ROW_57_320
*1480 TAP_TAPCELL_ROW_57_321
*1481 TAP_TAPCELL_ROW_57_322
*1482 TAP_TAPCELL_ROW_57_323
*1483 TAP_TAPCELL_ROW_57_324
*1484 TAP_TAPCELL_ROW_57_325
*1485 TAP_TAPCELL_ROW_57_326
*1486 TAP_TAPCELL_ROW_57_327
*1487 TAP_TAPCELL_ROW_57_328
*1488 TAP_TAPCELL_ROW_57_329
*1489 input1
*1490 input2
*1491 input3
*1492 input4
*1493 input5
*1494 input6
*1495 input7
*1496 input8
*1497 input9
*1498 input10
*1499 input11
*1500 input12
*1501 input13
*1502 input14
*1503 input15
*1504 input16
*1505 input17
*1506 input18
*1507 input19
*1508 input20
*1509 input21
*1510 input22
*1511 input23
*1512 input24
*1513 input25
*1514 input26
*1515 input27
*1516 input28
*1517 input29
*1518 input30
*1519 input31
*1520 input32
*1521 input33
*1522 input34
*1523 input35
*1524 input36
*1525 input37
*1526 input38
*1527 input39
*1528 input40
*1529 input41
*1530 input42
*1531 input43
*1532 input44
*1533 input45
*1534 input46
*1535 input47
*1536 input48
*1537 input49
*1538 input50
*1539 input51
*1540 input52
*1541 input53
*1542 input54
*1543 input55
*1544 input56
*1545 input57
*1546 input58
*1547 input59
*1548 input60
*1549 input61
*1550 input62
*1551 input63
*1552 input64
*1553 input65
*1554 input66
*1555 input67
*1556 input68
*1557 input69
*1558 input70
*1559 input71
*1560 input72
*1561 input73
*1562 input74
*1563 input75
*1564 input76
*1565 input77
*1566 input78
*1567 input79
*1568 input80
*1569 input81
*1570 input82
*1571 input83
*1572 input84
*1573 input85
*1574 input86
*1575 input87
*1576 input88
*1577 input89
*1578 input90
*1579 input91
*1580 input92
*1581 input93
*1582 input94
*1583 input95
*1584 input96
*1585 input97
*1586 input98
*1587 input99
*1588 input100
*1589 input101
*1590 input102
*1591 input103
*1592 input104
*1593 input105
*1594 input106
*1595 input107
*1596 input108
*1597 input109
*1598 input110
*1599 input111
*1600 input112
*1601 input113
*1602 input114
*1603 input115
*1604 input116
*1605 input117
*1606 input118
*1607 input119
*1608 input120
*1609 input121
*1610 input122
*1611 input123
*1612 input124
*1613 input125
*1614 input126
*1615 input127
*1616 input128
*1617 input129
*1618 input130
*1619 input131
*1620 input132
*1621 input133
*1622 input134
*1623 input135
*1624 input136
*1625 input137
*1626 input138
*1627 input139
*1628 input140
*1629 input141
*1630 input142
*1631 input143
*1632 input144
*1633 input145
*1634 input146
*1635 input147
*1636 input148
*1637 input149
*1638 input150
*1639 input151
*1640 input152
*1641 input153
*1642 input154
*1643 input155
*1644 input156
*1645 input157
*1646 input158
*1647 input159
*1648 input160
*1649 input161
*1650 input162
*1651 input163
*1652 input164
*1653 input165
*1654 input166
*1655 input167
*1656 input168
*1657 input169
*1658 input170
*1659 input171
*1660 input172
*1661 input173
*1662 input174
*1663 input175
*1664 input176
*1665 input177
*1666 input178
*1667 output179
*1668 output180
*1669 output181
*1670 output182
*1671 output183
*1672 output184
*1673 clkbuf_0_clk
*1674 clkbuf_1_0__f_clk
*1675 clkbuf_1_1__f_clk
*1676 FILLER_0_0
*1677 FILLER_0_8
*1678 FILLER_0_16
*1679 FILLER_0_24
*1680 FILLER_0_28
*1681 FILLER_0_31
*1682 FILLER_0_39
*1683 FILLER_0_47
*1684 FILLER_0_55
*1685 FILLER_0_59
*1686 FILLER_0_61
*1687 FILLER_0_69
*1688 FILLER_0_77
*1689 FILLER_0_85
*1690 FILLER_0_89
*1691 FILLER_0_91
*1692 FILLER_0_99
*1693 FILLER_0_107
*1694 FILLER_0_115
*1695 FILLER_0_119
*1696 FILLER_0_121
*1697 FILLER_0_137
*1698 FILLER_0_139
*1699 FILLER_0_149
*1700 FILLER_0_157
*1701 FILLER_0_164
*1702 FILLER_0_168
*1703 FILLER_0_176
*1704 FILLER_0_187
*1705 FILLER_0_189
*1706 FILLER_0_193
*1707 FILLER_0_211
*1708 FILLER_0_215
*1709 FILLER_0_217
*1710 FILLER_0_224
*1711 FILLER_0_232
*1712 FILLER_0_241
*1713 FILLER_0_249
*1714 FILLER_0_257
*1715 FILLER_0_265
*1716 FILLER_0_269
*1717 FILLER_0_271
*1718 FILLER_0_279
*1719 FILLER_0_287
*1720 FILLER_0_295
*1721 FILLER_0_299
*1722 FILLER_0_301
*1723 FILLER_0_309
*1724 FILLER_0_317
*1725 FILLER_0_325
*1726 FILLER_0_329
*1727 FILLER_0_331
*1728 FILLER_0_339
*1729 FILLER_1_0
*1730 FILLER_1_8
*1731 FILLER_1_16
*1732 FILLER_1_24
*1733 FILLER_1_32
*1734 FILLER_1_40
*1735 FILLER_1_48
*1736 FILLER_1_56
*1737 FILLER_1_61
*1738 FILLER_1_69
*1739 FILLER_1_77
*1740 FILLER_1_85
*1741 FILLER_1_93
*1742 FILLER_1_101
*1743 FILLER_1_109
*1744 FILLER_1_117
*1745 FILLER_1_119
*1746 FILLER_1_121
*1747 FILLER_1_129
*1748 FILLER_1_137
*1749 FILLER_1_139
*1750 FILLER_1_143
*1751 FILLER_1_148
*1752 FILLER_1_156
*1753 FILLER_1_164
*1754 FILLER_1_175
*1755 FILLER_1_179
*1756 FILLER_1_181
*1757 FILLER_1_185
*1758 FILLER_1_193
*1759 FILLER_1_197
*1760 FILLER_1_201
*1761 FILLER_1_206
*1762 FILLER_1_210
*1763 FILLER_1_214
*1764 FILLER_1_222
*1765 FILLER_1_230
*1766 FILLER_1_238
*1767 FILLER_1_241
*1768 FILLER_1_249
*1769 FILLER_1_257
*1770 FILLER_1_265
*1771 FILLER_1_273
*1772 FILLER_1_281
*1773 FILLER_1_289
*1774 FILLER_1_297
*1775 FILLER_1_299
*1776 FILLER_1_301
*1777 FILLER_1_309
*1778 FILLER_1_317
*1779 FILLER_1_325
*1780 FILLER_1_333
*1781 FILLER_1_341
*1782 FILLER_1_345
*1783 FILLER_2_0
*1784 FILLER_2_8
*1785 FILLER_2_16
*1786 FILLER_2_24
*1787 FILLER_2_28
*1788 FILLER_2_31
*1789 FILLER_2_39
*1790 FILLER_2_47
*1791 FILLER_2_55
*1792 FILLER_2_63
*1793 FILLER_2_71
*1794 FILLER_2_79
*1795 FILLER_2_87
*1796 FILLER_2_89
*1797 FILLER_2_91
*1798 FILLER_2_99
*1799 FILLER_2_107
*1800 FILLER_2_115
*1801 FILLER_2_123
*1802 FILLER_2_131
*1803 FILLER_2_139
*1804 FILLER_2_147
*1805 FILLER_2_149
*1806 FILLER_2_151
*1807 FILLER_2_156
*1808 FILLER_2_164
*1809 FILLER_2_172
*1810 FILLER_2_180
*1811 FILLER_2_188
*1812 FILLER_2_196
*1813 FILLER_2_204
*1814 FILLER_2_208
*1815 FILLER_2_211
*1816 FILLER_2_219
*1817 FILLER_2_227
*1818 FILLER_2_235
*1819 FILLER_2_243
*1820 FILLER_2_251
*1821 FILLER_2_259
*1822 FILLER_2_267
*1823 FILLER_2_269
*1824 FILLER_2_271
*1825 FILLER_2_279
*1826 FILLER_2_287
*1827 FILLER_2_295
*1828 FILLER_2_303
*1829 FILLER_2_311
*1830 FILLER_2_319
*1831 FILLER_2_327
*1832 FILLER_2_329
*1833 FILLER_2_331
*1834 FILLER_2_339
*1835 FILLER_3_0
*1836 FILLER_3_8
*1837 FILLER_3_16
*1838 FILLER_3_24
*1839 FILLER_3_32
*1840 FILLER_3_40
*1841 FILLER_3_48
*1842 FILLER_3_56
*1843 FILLER_3_61
*1844 FILLER_3_69
*1845 FILLER_3_77
*1846 FILLER_3_85
*1847 FILLER_3_93
*1848 FILLER_3_101
*1849 FILLER_3_109
*1850 FILLER_3_117
*1851 FILLER_3_119
*1852 FILLER_3_121
*1853 FILLER_3_129